@<TRIPOS>MOLECULE
CB7
  126   147     1     0     0
SMALL
gas


@<TRIPOS>ATOM
      1 N            1.3410    -0.5630    -5.0620 n          1 CB7      -0.246700
      2 C            1.2350     0.7530    -5.6450 c5         1 CB7       0.135169
      3 C1          -0.3060     0.9780    -5.7310 c5         1 CB7       0.135169
      4 N1          -0.8470    -0.3140    -5.4200 n          1 CB7      -0.246700
      5 C2           0.1230    -1.2290    -5.0420 c          1 CB7       0.308874
      6 N2           1.6850     1.8550    -4.8460 n          1 CB7      -0.246700
      7 C3           0.6440     2.6120    -4.3330 c          1 CB7       0.308874
      8 N3          -0.5370     2.0290    -4.7700 n          1 CB7      -0.246700
      9 O           -0.0530    -2.4000    -4.8020 o          1 CB7      -0.253644
     10 O1           0.7490     3.6240    -3.6810 o          1 CB7      -0.253644
     11 N4          -3.1110    -0.2710    -4.5300 n          1 CB7      -0.246700
     12 C4          -3.6590     1.0500    -4.4030 c5         1 CB7       0.135169
     13 C5          -4.7400     0.8890    -3.2890 c5         1 CB7       0.135169
     14 N5          -4.5400    -0.4620    -2.8270 n          1 CB7      -0.246700
     15 C6          -3.6610    -1.1740    -3.6330 c          1 CB7       0.308874
     16 N6          -2.7860     2.0670    -3.8730 n          1 CB7      -0.246700
     17 C7          -3.2890     2.6520    -2.7200 c          1 CB7       0.308874
     18 N7          -4.4250     1.9420    -2.3680 n          1 CB7      -0.246700
     19 O2          -3.4600    -2.3640    -3.6020 o          1 CB7      -0.253644
     20 O3          -2.8550     3.6320    -2.1630 o          1 CB7      -0.253644
     21 N8           4.9990    -1.6050     0.3100 n          1 CB7      -0.246700
     22 C8           5.7500    -0.5370     0.9280 c5         1 CB7       0.135169
     23 C9           5.2890    -0.6010     2.4160 c5         1 CB7       0.135169
     24 N9           4.5660    -1.8370     2.4860 n          1 CB7      -0.246700
     25 C10          4.4000    -2.4360     1.2470 c          1 CB7       0.308874
     26 N10          5.4160     0.8010     0.5360 n          1 CB7      -0.246700
     27 C11          4.6970     1.4840     1.5040 c          1 CB7       0.308874
     28 N11          4.5220     0.6130     2.5710 n          1 CB7      -0.246700
     29 O4           3.8850    -3.5070     1.0340 o          1 CB7      -0.253644
     30 O5           4.3440     2.6380     1.4520 o          1 CB7      -0.253644
     31 N12         -1.6400    -1.8800     4.8240 n          1 CB7      -0.246700
     32 C12         -2.2420    -0.6820     5.3320 c5         1 CB7       0.135169
     33 C13         -3.5860    -0.5950     4.5460 c5         1 CB7       0.135169
     34 N13         -3.4410    -1.6150     3.5360 n          1 CB7      -0.246700
     35 C14         -2.3460    -2.4350     3.7680 c          1 CB7       0.308874
     36 N14         -1.5920     0.5650     5.0070 n          1 CB7      -0.246700
     37 C15         -2.4520     1.4580     4.3800 c          1 CB7       0.308874
     38 N15         -3.6170     0.7650     4.0920 n          1 CB7      -0.246700
     39 O6          -2.0890    -3.4700     3.2020 o          1 CB7      -0.253644
     40 O7          -2.2490     2.6310     4.1800 o          1 CB7      -0.253644
     41 N16         -5.3360    -0.8900    -0.5730 n          1 CB7      -0.246700
     42 C16         -5.8430     0.2690     0.1010 c5         1 CB7       0.135169
     43 C17         -5.6090    -0.0600     1.6080 c5         1 CB7       0.135169
     44 N17         -4.7930    -1.2490     1.5610 n          1 CB7      -0.246700
     45 C18         -4.7210    -1.7890     0.2840 c          1 CB7       0.308874
     46 N18         -5.1160     1.5030    -0.0830 n          1 CB7      -0.246700
     47 C19         -4.7190     2.0630     1.1250 c          1 CB7       0.308874
     48 N19         -4.9900     1.1310     2.1140 n          1 CB7      -0.246700
     49 O8          -4.2650    -2.8660    -0.0170 o          1 CB7      -0.253644
     50 O9          -4.2810     3.1760     1.2910 o          1 CB7      -0.253644
     51 C20          4.1080    -2.4590     3.6970 c3         1 CB7       0.089661
     52 C21         -1.7830     2.7370    -4.6570 c3         1 CB7       0.089661
     53 C22          4.0850     1.1110     3.8490 c3         1 CB7       0.089661
     54 C23         -2.2240    -0.6910    -5.5800 c3         1 CB7       0.089661
     55 N20          3.4340    -0.9760    -3.9100 n          1 CB7      -0.246700
     56 C24          4.3330     0.1440    -3.8890 c5         1 CB7       0.135169
     57 C25          5.2040    -0.1130    -2.6190 c5         1 CB7       0.135169
     58 N21          4.6440    -1.3190    -2.0690 n          1 CB7      -0.246700
     59 C26          3.6480    -1.8630    -2.8660 c          1 CB7       0.308874
     60 N22          3.7520     1.4370    -3.6380 n          1 CB7      -0.246700
     61 C27          4.2370     2.0290    -2.4810 c          1 CB7       0.308874
     62 N23          5.0350     1.0890    -1.8480 n          1 CB7      -0.246700
     63 O10          3.1120    -2.9340    -2.7150 o          1 CB7      -0.253644
     64 O11          4.0500     3.1670    -2.1250 o          1 CB7      -0.253644
     65 C28          2.5730    -1.3060    -5.0100 c3         1 CB7       0.089661
     66 C29          3.0600     2.2120    -4.6330 c3         1 CB7       0.089661
     67 C30          5.8190     1.4280    -0.6920 c3         1 CB7       0.089661
     68 C31          5.2590    -2.0850    -1.0220 c3         1 CB7       0.089661
     69 C32         -5.4730    -1.1550    -1.9770 c3         1 CB7       0.089661
     70 C33         -5.2450     2.3290    -1.2550 c3         1 CB7       0.089661
     71 C34         -4.5280    -2.0700     2.7120 c3         1 CB7       0.089661
     72 C35         -4.7580     1.4120     3.5050 c3         1 CB7       0.089661
     73 N24          0.8230     0.5110     5.2210 n          1 CB7      -0.246700
     74 C36          1.3580    -0.7650     5.6070 c5         1 CB7       0.135169
     75 C37          2.8150    -0.7320     5.0450 c5         1 CB7       0.135169
     76 N25          2.8710     0.5230     4.3410 n          1 CB7      -0.246700
     77 C38          1.7250     1.2860     4.5100 c          1 CB7       0.308874
     78 N26          0.7840    -1.9250     4.9760 n          1 CB7      -0.246700
     79 C39          1.7160    -2.6590     4.2570 c          1 CB7       0.308874
     80 N27          2.8920    -1.9250     4.2480 n          1 CB7      -0.246700
     81 O12          1.5670     2.4300     4.1590 o          1 CB7      -0.253644
     82 O13          1.5540    -3.7580     3.7810 o          1 CB7      -0.253644
     83 C40         -0.4220     1.0470     5.6940 c3         1 CB7       0.089661
     84 C41         -0.4700    -2.5100     5.3690 c3         1 CB7       0.089661
     85 H            1.8260     0.7520    -6.5370 h2         1 CB7       0.076188
     86 H1          -0.7500     1.2890    -6.6540 h2         1 CB7       0.076188
     87 H2          -3.9500     1.3640    -5.3840 h2         1 CB7       0.076188
     88 H3          -5.7770     0.9870    -3.5340 h2         1 CB7       0.076188
     89 H4           6.7800    -0.6870     0.6790 h2         1 CB7       0.076188
     90 H5           6.0160    -0.6200     3.2010 h2         1 CB7       0.076188
     91 H6          -2.2500    -0.7650     6.3990 h2         1 CB7       0.076188
     92 H7          -4.5120    -0.7780     5.0500 h2         1 CB7       0.076188
     93 H8          -6.8360     0.4320    -0.2620 h2         1 CB7       0.076188
     94 H9          -6.4430    -0.2740     2.2440 h2         1 CB7       0.076188
     95 H10          4.8770    -2.3530     4.4330 h2         1 CB7       0.068576
     96 H11          3.8920    -3.4750     3.4410 h2         1 CB7       0.068576
     97 H12         -2.1730     2.8840    -5.6420 h2         1 CB7       0.068576
     98 H13         -1.5650     3.6530    -4.1490 h2         1 CB7       0.068576
     99 H14          3.9320     2.1660     3.7600 h2         1 CB7       0.068576
    100 H15          4.8510     0.8530     4.5510 h2         1 CB7       0.068576
    101 H16         -2.2680    -1.7580    -5.6400 h2         1 CB7       0.068576
    102 H17         -2.5620    -0.1930    -6.4640 h2         1 CB7       0.068576
    103 H18          4.7990     0.1900    -4.8510 h2         1 CB7       0.076188
    104 H19          6.2570    -0.2740    -2.7230 h2         1 CB7       0.076188
    105 H20          3.1090    -1.1230    -5.9180 h2         1 CB7       0.068576
    106 H21          2.2990    -2.3320    -4.8780 h2         1 CB7       0.068576
    107 H22          3.0920     3.2390    -4.3330 h2         1 CB7       0.068576
    108 H23          3.5610     2.0190    -5.5580 h2         1 CB7       0.068576
    109 H24          5.7620     2.4880    -0.5550 h2         1 CB7       0.068576
    110 H25          6.8070     1.0710    -0.8930 h2         1 CB7       0.068576
    111 H26          6.3170    -2.0740    -1.1790 h2         1 CB7       0.068576
    112 H27          4.8340    -3.0660    -1.0770 h2         1 CB7       0.068576
    113 H28         -5.3420    -2.2060    -2.1300 h2         1 CB7       0.068576
    114 H29         -6.4440    -0.8000    -2.2520 h2         1 CB7       0.068576
    115 H30         -6.2670     2.2990    -1.5700 h2         1 CB7       0.068576
    116 H31         -4.9150     3.3060    -0.9680 h2         1 CB7       0.068576
    117 H32         -4.2970    -3.0580     2.3710 h2         1 CB7       0.068576
    118 H33         -5.4070    -2.0300     3.3210 h2         1 CB7       0.068576
    119 H34         -5.6260     1.1060     4.0510 h2         1 CB7       0.068576
    120 H35         -4.5570     2.4620     3.5600 h2         1 CB7       0.068576
    121 H36          1.1980    -0.8680     6.6600 h2         1 CB7       0.076188
    122 H37          3.6450    -0.7520     5.7200 h2         1 CB7       0.076188
    123 H38         -0.5190     0.7970     6.7300 h2         1 CB7       0.068576
    124 H39         -0.3820     2.1010     5.5130 h2         1 CB7       0.068576
    125 H40         -0.4700    -3.5330     5.0560 h2         1 CB7       0.068576
    126 H41         -0.5340    -2.3850     6.4300 h2         1 CB7       0.068576
@<TRIPOS>BOND
     1     1     2 1   
     2     1     5 1   
     3     1    65 1   
     4     2     3 1   
     5     2     6 1   
     6     2    85 1   
     7     3     4 1   
     8     3     8 1   
     9     3    86 1   
    10     4     5 1   
    11     4    54 1   
    12     5     9 2   
    13     6     7 1   
    14     6    66 1   
    15     7     8 1   
    16     7    10 2   
    17     8    52 1   
    18    11    12 1   
    19    11    15 1   
    20    11    54 1   
    21    12    13 1   
    22    12    16 1   
    23    12    87 1   
    24    13    14 1   
    25    13    18 1   
    26    13    88 1   
    27    14    15 1   
    28    14    69 1   
    29    15    19 2   
    30    16    17 1   
    31    16    52 1   
    32    17    18 1   
    33    17    20 2   
    34    18    70 1   
    35    21    22 1   
    36    21    25 1   
    37    21    68 1   
    38    22    23 1   
    39    22    26 1   
    40    22    89 1   
    41    23    24 1   
    42    23    28 1   
    43    23    90 1   
    44    24    25 1   
    45    24    51 1   
    46    25    29 2   
    47    26    27 1   
    48    26    67 1   
    49    27    28 1   
    50    27    30 2   
    51    28    53 1   
    52    31    32 1   
    53    31    35 1   
    54    31    84 1   
    55    32    33 1   
    56    32    36 1   
    57    32    91 1   
    58    33    34 1   
    59    33    38 1   
    60    33    92 1   
    61    34    35 1   
    62    34    71 1   
    63    35    39 2   
    64    36    37 1   
    65    36    83 1   
    66    37    38 1   
    67    37    40 2   
    68    38    72 1   
    69    41    42 1   
    70    41    45 1   
    71    41    69 1   
    72    42    43 1   
    73    42    46 1   
    74    42    93 1   
    75    43    44 1   
    76    43    48 1   
    77    43    94 1   
    78    44    45 1   
    79    44    71 1   
    80    45    49 2   
    81    46    47 1   
    82    46    70 1   
    83    47    48 1   
    84    47    50 2   
    85    48    72 1   
    86    51    80 1   
    87    51    95 1   
    88    51    96 1   
    89    52    97 1   
    90    52    98 1   
    91    53    76 1   
    92    53    99 1   
    93    53   100 1   
    94    54   101 1   
    95    54   102 1   
    96    55    56 1   
    97    55    59 1   
    98    55    65 1   
    99    56    57 1   
   100    56    60 1   
   101    56   103 1   
   102    57    58 1   
   103    57    62 1   
   104    57   104 1   
   105    58    59 1   
   106    58    68 1   
   107    59    63 2   
   108    60    61 1   
   109    60    66 1   
   110    61    62 1   
   111    61    64 2   
   112    62    67 1   
   113    65   105 1   
   114    65   106 1   
   115    66   107 1   
   116    66   108 1   
   117    67   109 1   
   118    67   110 1   
   119    68   111 1   
   120    68   112 1   
   121    69   113 1   
   122    69   114 1   
   123    70   115 1   
   124    70   116 1   
   125    71   117 1   
   126    71   118 1   
   127    72   119 1   
   128    72   120 1   
   129    73    74 1   
   130    73    77 1   
   131    73    83 1   
   132    74    75 1   
   133    74    78 1   
   134    74   121 1   
   135    75    76 1   
   136    75    80 1   
   137    75   122 1   
   138    76    77 1   
   139    77    81 2   
   140    78    79 1   
   141    78    84 1   
   142    79    80 1   
   143    79    82 2   
   144    83   123 1   
   145    83   124 1   
   146    84   125 1   
   147    84   126 1   
@<TRIPOS>SUBSTRUCTURE
     1 CB7         1 TEMP              0 ****  ****    0 ROOT
