@<TRIPOS>MOLECULE
CB7
  126   147     1     0     0
SMALL
gas


@<TRIPOS>ATOM
      1 N1           2.6880     3.7310    -1.3730 n          1 CB7      -0.246700
      2 C1           2.8980     4.5050    -0.1730 c3         1 CB7       0.135169
      3 C2           1.5390     5.2470     0.0110 c3         1 CB7       0.135169
      4 N2           0.8500     4.9860    -1.2200 n          1 CB7      -0.246700
      5 C3           1.5320     4.1060    -2.0450 c          1 CB7       0.308874
      6 N3           3.0450     3.7760     1.0520 n          1 CB7      -0.246700
      7 C4           1.9280     3.8590     1.8680 c          1 CB7       0.308874
      8 N4           0.9960     4.6430     1.2030 n          1 CB7      -0.246700
      9 O1           1.2110     3.7780    -3.1630 o          1 CB7      -0.253644
     10 O2           1.8140     3.3890     2.9750 o          1 CB7      -0.253644
     11 N5          -1.5750     5.1180    -1.0650 n          1 CB7      -0.246700
     12 C5          -2.0550     5.4360     0.2510 c3         1 CB7       0.135169
     13 C6          -3.5020     4.8510     0.2600 c3         1 CB7       0.135169
     14 N6          -3.5790     4.1410    -0.9930 n          1 CB7      -0.246700
     15 C7          -2.4890     4.3940    -1.8150 c          1 CB7       0.308874
     16 N7          -1.4180     4.7620     1.3550 n          1 CB7      -0.246700
     17 C8          -2.3130     4.0230     2.1150 c          1 CB7       0.308874
     18 N8          -3.5310     4.0590     1.4550 n          1 CB7      -0.246700
     19 O3          -2.3820     4.0970    -2.9800 o          1 CB7      -0.253644
     20 O4          -2.0900     3.4990     3.1800 o          1 CB7      -0.253644
     21 N9           3.7920    -2.7580    -1.4560 n          1 CB7      -0.246700
     22 C9           4.2840    -3.4530    -0.2890 c3         1 CB7       0.135169
     23 C10          3.2560    -4.6120    -0.1120 c3         1 CB7       0.135169
     24 N10          2.5020    -4.5740    -1.3310 n          1 CB7      -0.246700
     25 C11          2.8200    -3.4860    -2.1290 c          1 CB7       0.308874
     26 N11          4.2100    -2.7530     0.9610 n          1 CB7      -0.246700
     27 C12          3.1990    -3.2220     1.7840 c          1 CB7       0.308874
     28 N12          2.5590    -4.2470     1.0990 n          1 CB7      -0.246700
     29 O5           2.3790    -3.2520    -3.2280 o          1 CB7      -0.253644
     30 O6           2.9600    -2.8500     2.9080 o          1 CB7      -0.253644
     31 N13         -4.1120    -4.1460    -1.0810 n          1 CB7      -0.246700
     32 C13         -4.8030    -4.1680     0.1760 c3         1 CB7       0.135169
     33 C14         -5.7050    -2.8980     0.1110 c3         1 CB7       0.135169
     34 N14         -5.2190    -2.2100    -1.0600 n          1 CB7      -0.246700
     35 C15         -4.3580    -2.9950    -1.8130 c          1 CB7       0.308874
     36 N15         -4.0100    -3.9450     1.3610 n          1 CB7      -0.246700
     37 C16         -4.4930    -2.8900     2.1250 c          1 CB7       0.308874
     38 N16         -5.4760    -2.2640     1.3760 n          1 CB7      -0.246700
     39 O7          -3.9500    -2.7540    -2.9240 o          1 CB7      -0.253644
     40 O8          -4.1630    -2.6080     3.2520 o          1 CB7      -0.253644
     41 N17         -5.2430     2.3730    -1.0540 n          1 CB7      -0.246700
     42 C17         -5.9160     2.1560     0.1930 c3         1 CB7       0.135169
     43 C18         -6.3310     0.6540     0.1210 c3         1 CB7       0.135169
     44 N18         -5.6320     0.1760    -1.0460 n          1 CB7      -0.246700
     45 C19         -5.0780     1.2100    -1.7890 c          1 CB7       0.308874
     46 N19         -5.1120     2.2190     1.3900 n          1 CB7      -0.246700
     47 C20         -5.2090     1.0580     2.1480 c          1 CB7       0.308874
     48 N20         -5.9070     0.1340     1.3890 n          1 CB7      -0.246700
     49 O9          -4.5980     1.1250    -2.8940 o          1 CB7      -0.253644
     50 O10         -4.8160     0.9050     3.2800 o          1 CB7      -0.253644
     51 C21          1.5590    -5.5730    -1.7500 c3         1 CB7       0.089661
     52 C22         -0.1490     5.1620     1.9010 c3         1 CB7       0.089661
     53 C23          1.6690    -5.1390     1.7950 c3         1 CB7       0.089661
     54 C24         -0.3620     5.6330    -1.6390 c3         1 CB7       0.089661
     55 N21          4.1080     1.7740    -1.5580 n          1 CB7      -0.246700
     56 C25          4.9810     1.5640    -0.4360 c3         1 CB7       0.135169
     57 C26          5.2470     0.0260    -0.4660 c3         1 CB7       0.135169
     58 N22          4.4470    -0.4290    -1.5730 n          1 CB7      -0.246700
     59 C27          3.8330     0.6090    -2.2560 c          1 CB7       0.308874
     60 N23          4.4180     1.7790     0.8720 n          1 CB7      -0.246700
     61 C28          4.4240     0.6340     1.6540 c          1 CB7       0.308874
     62 N24          4.8450    -0.4090     0.8440 n          1 CB7      -0.246700
     63 O11          3.2240     0.5240    -3.2950 o          1 CB7      -0.253644
     64 O12          4.1700     0.5690     2.8330 o          1 CB7      -0.253644
     65 C29          3.7510     3.0630    -2.0780 c3         1 CB7       0.089661
     66 C30          4.2320     3.0790     1.4610 c3         1 CB7       0.089661
     67 C31          5.1100    -1.7150     1.3820 c3         1 CB7       0.089661
     68 C32          4.5430    -1.7420    -2.1450 c3         1 CB7       0.089661
     69 C33         -4.8130     3.6490    -1.5500 c3         1 CB7       0.089661
     70 C34         -4.7100     3.4550     2.0090 c3         1 CB7       0.089661
     71 C35         -5.9010    -1.0960    -1.6610 c3         1 CB7       0.089661
     72 C36         -6.2450    -1.1680     1.9000 c3         1 CB7       0.089661
     73 N25         -1.8960    -5.1330     1.3800 n          1 CB7      -0.246700
     74 C37         -1.6330    -5.9000     0.1940 c3         1 CB7       0.135169
     75 C38         -0.0740    -5.9850     0.1560 c3         1 CB7       0.135169
     76 N26          0.3300    -5.1770     1.2780 n          1 CB7      -0.246700
     77 C39         -0.7430    -4.7410     2.0410 c          1 CB7       0.308874
     78 N27         -1.9640    -5.2800    -1.0630 n          1 CB7      -0.246700
     79 C40         -0.8620    -5.1300    -1.8910 c          1 CB7       0.308874
     80 N28          0.2550    -5.4870    -1.1510 n          1 CB7      -0.246700
     81 O13         -0.6830    -4.1810     3.1080 o          1 CB7      -0.253644
     82 O14         -0.8760    -4.8090    -3.0560 o          1 CB7      -0.253644
     83 C41         -3.1950    -4.9650     1.9680 c3         1 CB7       0.089661
     84 C42         -3.2990    -5.2130    -1.5940 c3         1 CB7       0.089661
     85 H1           3.8000     5.0650    -0.3130 h2         1 CB7       0.076188
     86 H2           1.5260     6.3070     0.1580 h2         1 CB7       0.076188
     87 H3          -1.9060     6.4850     0.3930 h2         1 CB7       0.076188
     88 H4          -4.3430     5.5110     0.3000 h2         1 CB7       0.076188
     89 H5           5.3160    -3.6740    -0.4620 h2         1 CB7       0.076188
     90 H6           3.6010    -5.6170     0.0100 h2         1 CB7       0.076188
     91 H7          -5.2470    -5.1360     0.2700 h2         1 CB7       0.076188
     92 H8          -6.7650    -3.0020     0.0000 h2         1 CB7       0.076188
     93 H9          -6.6670     2.9140     0.2780 h2         1 CB7       0.076188
     94 H10         -7.3620     0.3900     0.0030 h2         1 CB7       0.076188
     95 H11          1.9680    -6.5320    -1.5120 h2         1 CB7       0.068576
     96 H12          1.4110    -5.4140    -2.7980 h2         1 CB7       0.068576
     97 H13         -0.0980     6.2310     1.8770 h2         1 CB7       0.068576
     98 H14         -0.1060     4.7610     2.8920 h2         1 CB7       0.068576
     99 H15          1.6220    -4.8310     2.8180 h2         1 CB7       0.068576
    100 H16          2.0690    -6.1230     1.6680 h2         1 CB7       0.068576
    101 H17         -0.4350     5.5370    -2.7020 h2         1 CB7       0.068576
    102 H18         -0.2850     6.6450    -1.2990 h2         1 CB7       0.068576
    103 H19          5.7990     2.2460    -0.5430 h2         1 CB7       0.076188
    104 H20          6.2410    -0.3360    -0.6250 h2         1 CB7       0.076188
    105 H21          4.6180     3.6890    -2.0400 h2         1 CB7       0.068576
    106 H22          3.3910     2.8960    -3.0720 h2         1 CB7       0.068576
    107 H23          4.1950     2.9570     2.5230 h2         1 CB7       0.068576
    108 H24          5.0540     3.6750     1.1250 h2         1 CB7       0.068576
    109 H25          5.0590    -1.6490     2.4490 h2         1 CB7       0.068576
    110 H26          6.0740    -1.9950     1.0110 h2         1 CB7       0.068576
    111 H27          5.5730    -2.0320    -2.1440 h2         1 CB7       0.068576
    112 H28          4.1250    -1.6730    -3.1280 h2         1 CB7       0.068576
    113 H29         -4.6880     3.5680    -2.6090 h2         1 CB7       0.068576
    114 H30         -5.5690     4.3490    -1.2600 h2         1 CB7       0.068576
    115 H31         -5.5160     4.1510     1.9110 h2         1 CB7       0.068576
    116 H32         -4.4720     3.2160     3.0240 h2         1 CB7       0.068576
    117 H33         -5.6060    -1.0390    -2.6880 h2         1 CB7       0.068576
    118 H34         -6.9480    -1.2780    -1.5350 h2         1 CB7       0.068576
    119 H35         -7.2740    -1.3520     1.6750 h2         1 CB7       0.068576
    120 H36         -6.0270    -1.1340     2.9470 h2         1 CB7       0.068576
    121 H37         -2.2120    -6.7970     0.2650 h2         1 CB7       0.076188
    122 H38          0.4080    -6.9340     0.2610 h2         1 CB7       0.076188
    123 H39         -3.7170    -5.8960     1.8920 h2         1 CB7       0.068576
    124 H40         -3.0280    -4.6540     2.9780 h2         1 CB7       0.068576
    125 H41         -3.2270    -5.0930    -2.6550 h2         1 CB7       0.068576
    126 H42         -3.7810    -6.1200    -1.2960 h2         1 CB7       0.068576
@<TRIPOS>BOND
     1     1     2 1   
     2     1     5 1   
     3     1    65 1   
     4     2     3 1   
     5     2     6 1   
     6     2    85 1   
     7     3     4 1   
     8     3     8 1   
     9     3    86 1   
    10     4     5 1   
    11     4    54 1   
    12     5     9 2   
    13     6     7 1   
    14     6    66 1   
    15     7     8 1   
    16     7    10 2   
    17     8    52 1   
    18    11    12 1   
    19    11    15 1   
    20    11    54 1   
    21    12    13 1   
    22    12    16 1   
    23    12    87 1   
    24    13    14 1   
    25    13    18 1   
    26    13    88 1   
    27    14    15 1   
    28    14    69 1   
    29    15    19 2   
    30    16    17 1   
    31    16    52 1   
    32    17    18 1   
    33    17    20 2   
    34    18    70 1   
    35    21    22 1   
    36    21    25 1   
    37    21    68 1   
    38    22    23 1   
    39    22    26 1   
    40    22    89 1   
    41    23    24 1   
    42    23    28 1   
    43    23    90 1   
    44    24    25 1   
    45    24    51 1   
    46    25    29 2   
    47    26    27 1   
    48    26    67 1   
    49    27    28 1   
    50    27    30 2   
    51    28    53 1   
    52    31    32 1   
    53    31    35 1   
    54    31    84 1   
    55    32    33 1   
    56    32    36 1   
    57    32    91 1   
    58    33    34 1   
    59    33    38 1   
    60    33    92 1   
    61    34    35 1   
    62    34    71 1   
    63    35    39 2   
    64    36    37 1   
    65    36    83 1   
    66    37    38 1   
    67    37    40 2   
    68    38    72 1   
    69    41    42 1   
    70    41    45 1   
    71    41    69 1   
    72    42    43 1   
    73    42    46 1   
    74    42    93 1   
    75    43    44 1   
    76    43    48 1   
    77    43    94 1   
    78    44    45 1   
    79    44    71 1   
    80    45    49 2   
    81    46    47 1   
    82    46    70 1   
    83    47    48 1   
    84    47    50 2   
    85    48    72 1   
    86    51    80 1   
    87    51    95 1   
    88    51    96 1   
    89    52    97 1   
    90    52    98 1   
    91    53    76 1   
    92    53    99 1   
    93    53   100 1   
    94    54   101 1   
    95    54   102 1   
    96    55    56 1   
    97    55    59 1   
    98    55    65 1   
    99    56    57 1   
   100    56    60 1   
   101    56   103 1   
   102    57    58 1   
   103    57    62 1   
   104    57   104 1   
   105    58    59 1   
   106    58    68 1   
   107    59    63 2   
   108    60    61 1   
   109    60    66 1   
   110    61    62 1   
   111    61    64 2   
   112    62    67 1   
   113    65   105 1   
   114    65   106 1   
   115    66   107 1   
   116    66   108 1   
   117    67   109 1   
   118    67   110 1   
   119    68   111 1   
   120    68   112 1   
   121    69   113 1   
   122    69   114 1   
   123    70   115 1   
   124    70   116 1   
   125    71   117 1   
   126    71   118 1   
   127    72   119 1   
   128    72   120 1   
   129    73    74 1   
   130    73    77 1   
   131    73    83 1   
   132    74    75 1   
   133    74    78 1   
   134    74   121 1   
   135    75    76 1   
   136    75    80 1   
   137    75   122 1   
   138    76    77 1   
   139    77    81 2   
   140    78    79 1   
   141    78    84 1   
   142    79    80 1   
   143    79    82 2   
   144    83   123 1   
   145    83   124 1   
   146    84   125 1   
   147    84   126 1   
@<TRIPOS>SUBSTRUCTURE
     1 CB7         1 TEMP              0 ****  ****    0 ROOT
