@<TRIPOS>MOLECULE
cb7_4amber.pdb
 126 147 0 0 0
SMALL
GASTEIGER

@<TRIPOS>ATOM
      1  N          2.6880    3.7310   -1.3730 N.am    1  CB71       -0.2471
      2  C          2.8980    4.5050   -0.1730 C.3     1  CB71        0.1358
      3  C1         1.5390    5.2470    0.0110 C.3     1  CB71        0.1358
      4  N1         0.8500    4.9860   -1.2200 N.am    1  CB71       -0.2471
      5  C2         1.5320    4.1060   -2.0450 C.2     1  CB71        0.3102
      6  N2         3.0450    3.7760    1.0520 N.am    1  CB71       -0.2471
      7  C3         1.9280    3.8590    1.8680 C.2     1  CB71        0.3102
      8  N3         0.9960    4.6430    1.2030 N.am    1  CB71       -0.2471
      9  O          1.2110    3.7780   -3.1630 O.2     1  CB71       -0.2522
     10  O1         1.8140    3.3890    2.9750 O.2     1  CB71       -0.2522
     11  N4        -1.5750    5.1180   -1.0650 N.am    1  CB71       -0.2471
     12  C4        -2.0550    5.4360    0.2510 C.3     1  CB71        0.1358
     13  C5        -3.5020    4.8510    0.2600 C.3     1  CB71        0.1358
     14  N5        -3.5790    4.1410   -0.9930 N.am    1  CB71       -0.2471
     15  C6        -2.4890    4.3940   -1.8150 C.2     1  CB71        0.3102
     16  N6        -1.4180    4.7620    1.3550 N.am    1  CB71       -0.2471
     17  C7        -2.3130    4.0230    2.1150 C.2     1  CB71        0.3102
     18  N7        -3.5310    4.0590    1.4550 N.am    1  CB71       -0.2471
     19  O2        -2.3820    4.0970   -2.9800 O.2     1  CB71       -0.2522
     20  O3        -2.0900    3.4990    3.1800 O.2     1  CB71       -0.2522
     21  N8         3.7920   -2.7580   -1.4560 N.am    1  CB71       -0.2471
     22  C8         4.2840   -3.4530   -0.2890 C.3     1  CB71        0.1358
     23  C9         3.2560   -4.6120   -0.1120 C.3     1  CB71        0.1358
     24  N9         2.5020   -4.5740   -1.3310 N.am    1  CB71       -0.2471
     25  C10        2.8200   -3.4860   -2.1290 C.2     1  CB71        0.3102
     26  N10        4.2100   -2.7530    0.9610 N.am    1  CB71       -0.2471
     27  C11        3.1990   -3.2220    1.7840 C.2     1  CB71        0.3102
     28  N11        2.5590   -4.2470    1.0990 N.am    1  CB71       -0.2471
     29  O4         2.3790   -3.2520   -3.2280 O.2     1  CB71       -0.2522
     30  O5         2.9600   -2.8500    2.9080 O.2     1  CB71       -0.2522
     31  N12       -4.1120   -4.1460   -1.0810 N.am    1  CB71       -0.2471
     32  C12       -4.8030   -4.1680    0.1760 C.3     1  CB71        0.1358
     33  C13       -5.7050   -2.8980    0.1110 C.3     1  CB71        0.1358
     34  N13       -5.2190   -2.2100   -1.0600 N.am    1  CB71       -0.2471
     35  C14       -4.3580   -2.9950   -1.8130 C.2     1  CB71        0.3102
     36  N14       -4.0100   -3.9450    1.3610 N.am    1  CB71       -0.2471
     37  C15       -4.4930   -2.8900    2.1250 C.2     1  CB71        0.3102
     38  N15       -5.4760   -2.2640    1.3760 N.am    1  CB71       -0.2471
     39  O6        -3.9500   -2.7540   -2.9240 O.2     1  CB71       -0.2522
     40  O7        -4.1630   -2.6080    3.2520 O.2     1  CB71       -0.2522
     41  N16       -5.2430    2.3730   -1.0540 N.am    1  CB71       -0.2471
     42  C16       -5.9160    2.1560    0.1930 C.3     1  CB71        0.1358
     43  C17       -6.3310    0.6540    0.1210 C.3     1  CB71        0.1358
     44  N17       -5.6320    0.1760   -1.0460 N.am    1  CB71       -0.2471
     45  C18       -5.0780    1.2100   -1.7890 C.2     1  CB71        0.3102
     46  N18       -5.1120    2.2190    1.3900 N.am    1  CB71       -0.2471
     47  C19       -5.2090    1.0580    2.1480 C.2     1  CB71        0.3102
     48  N19       -5.9070    0.1340    1.3890 N.am    1  CB71       -0.2471
     49  O8        -4.5980    1.1250   -2.8940 O.2     1  CB71       -0.2522
     50  O9        -4.8160    0.9050    3.2800 O.2     1  CB71       -0.2522
     51  C20        1.5590   -5.5730   -1.7500 C.3     1  CB71        0.0902
     52  C21       -0.1490    5.1620    1.9010 C.3     1  CB71        0.0902
     53  C22        1.6690   -5.1390    1.7950 C.3     1  CB71        0.0902
     54  C23       -0.3620    5.6330   -1.6390 C.3     1  CB71        0.0902
     55  N20        4.1080    1.7740   -1.5580 N.am    1  CB71       -0.2471
     56  C24        4.9810    1.5640   -0.4360 C.3     1  CB71        0.1358
     57  C25        5.2470    0.0260   -0.4660 C.3     1  CB71        0.1358
     58  N21        4.4470   -0.4290   -1.5730 N.am    1  CB71       -0.2471
     59  C26        3.8330    0.6090   -2.2560 C.2     1  CB71        0.3102
     60  N22        4.4180    1.7790    0.8720 N.am    1  CB71       -0.2471
     61  C27        4.4240    0.6340    1.6540 C.2     1  CB71        0.3102
     62  N23        4.8450   -0.4090    0.8440 N.am    1  CB71       -0.2471
     63  O10        3.2240    0.5240   -3.2950 O.2     1  CB71       -0.2522
     64  O11        4.1700    0.5690    2.8330 O.2     1  CB71       -0.2522
     65  C28        3.7510    3.0630   -2.0780 C.3     1  CB71        0.0902
     66  C29        4.2320    3.0790    1.4610 C.3     1  CB71        0.0902
     67  C30        5.1100   -1.7150    1.3820 C.3     1  CB71        0.0902
     68  C31        4.5430   -1.7420   -2.1450 C.3     1  CB71        0.0902
     69  C32       -4.8130    3.6490   -1.5500 C.3     1  CB71        0.0902
     70  C33       -4.7100    3.4550    2.0090 C.3     1  CB71        0.0902
     71  C34       -5.9010   -1.0960   -1.6610 C.3     1  CB71        0.0902
     72  C35       -6.2450   -1.1680    1.9000 C.3     1  CB71        0.0902
     73  N24       -1.8960   -5.1330    1.3800 N.am    1  CB71       -0.2471
     74  C36       -1.6330   -5.9000    0.1940 C.3     1  CB71        0.1358
     75  C37       -0.0740   -5.9850    0.1560 C.3     1  CB71        0.1358
     76  N25        0.3300   -5.1770    1.2780 N.am    1  CB71       -0.2471
     77  C38       -0.7430   -4.7410    2.0410 C.2     1  CB71        0.3102
     78  N26       -1.9640   -5.2800   -1.0630 N.am    1  CB71       -0.2471
     79  C39       -0.8620   -5.1300   -1.8910 C.2     1  CB71        0.3102
     80  N27        0.2550   -5.4870   -1.1510 N.am    1  CB71       -0.2471
     81  O12       -0.6830   -4.1810    3.1080 O.2     1  CB71       -0.2522
     82  O13       -0.8760   -4.8090   -3.0560 O.2     1  CB71       -0.2522
     83  C40       -3.1950   -4.9650    1.9680 C.3     1  CB71        0.0902
     84  C41       -3.2990   -5.2130   -1.5940 C.3     1  CB71        0.0902
     85  H          3.8000    5.0650   -0.3130 H       1  CB71        0.0749
     86  H1         1.5260    6.3070    0.1580 H       1  CB71        0.0749
     87  H2        -1.9060    6.4850    0.3930 H       1  CB71        0.0749
     88  H3        -4.3430    5.5110    0.3000 H       1  CB71        0.0749
     89  H4         5.3160   -3.6740   -0.4620 H       1  CB71        0.0749
     90  H5         3.6010   -5.6170    0.0100 H       1  CB71        0.0749
     91  H6        -5.2470   -5.1360    0.2700 H       1  CB71        0.0749
     92  H7        -6.7650   -3.0020    0.0000 H       1  CB71        0.0749
     93  H8        -6.6670    2.9140    0.2780 H       1  CB71        0.0749
     94  H9        -7.3620    0.3900    0.0030 H       1  CB71        0.0749
     95  H10        1.9680   -6.5320   -1.5120 H       1  CB71        0.0676
     96  H11        1.4110   -5.4140   -2.7980 H       1  CB71        0.0676
     97  H12       -0.0980    6.2310    1.8770 H       1  CB71        0.0676
     98  H13       -0.1060    4.7610    2.8920 H       1  CB71        0.0676
     99  H14        1.6220   -4.8310    2.8180 H       1  CB71        0.0676
    100  H15        2.0690   -6.1230    1.6680 H       1  CB71        0.0676
    101  H16       -0.4350    5.5370   -2.7020 H       1  CB71        0.0676
    102  H17       -0.2850    6.6450   -1.2990 H       1  CB71        0.0676
    103  H18        5.7990    2.2460   -0.5430 H       1  CB71        0.0749
    104  H19        6.2410   -0.3360   -0.6250 H       1  CB71        0.0749
    105  H20        4.6180    3.6890   -2.0400 H       1  CB71        0.0676
    106  H21        3.3910    2.8960   -3.0720 H       1  CB71        0.0676
    107  H22        4.1950    2.9570    2.5230 H       1  CB71        0.0676
    108  H23        5.0540    3.6750    1.1250 H       1  CB71        0.0676
    109  H24        5.0590   -1.6490    2.4490 H       1  CB71        0.0676
    110  H25        6.0740   -1.9950    1.0110 H       1  CB71        0.0676
    111  H26        5.5730   -2.0320   -2.1440 H       1  CB71        0.0676
    112  H27        4.1250   -1.6730   -3.1280 H       1  CB71        0.0676
    113  H28       -4.6880    3.5680   -2.6090 H       1  CB71        0.0676
    114  H29       -5.5690    4.3490   -1.2600 H       1  CB71        0.0676
    115  H30       -5.5160    4.1510    1.9110 H       1  CB71        0.0676
    116  H31       -4.4720    3.2160    3.0240 H       1  CB71        0.0676
    117  H32       -5.6060   -1.0390   -2.6880 H       1  CB71        0.0676
    118  H33       -6.9480   -1.2780   -1.5350 H       1  CB71        0.0676
    119  H34       -7.2740   -1.3520    1.6750 H       1  CB71        0.0676
    120  H35       -6.0270   -1.1340    2.9470 H       1  CB71        0.0676
    121  H36       -2.2120   -6.7970    0.2650 H       1  CB71        0.0749
    122  H37        0.4080   -6.9340    0.2610 H       1  CB71        0.0749
    123  H38       -3.7170   -5.8960    1.8920 H       1  CB71        0.0676
    124  H39       -3.0280   -4.6540    2.9780 H       1  CB71        0.0676
    125  H40       -3.2270   -5.0930   -2.6550 H       1  CB71        0.0676
    126  H41       -3.7810   -6.1200   -1.2960 H       1  CB71        0.0676
@<TRIPOS>BOND
     1     1     2    1
     2     1     5   am
     3     1    65    1
     4     2     3    1
     5     2     6    1
     6     2    85    1
     7     3     4    1
     8     3     8    1
     9     3    86    1
    10     4     5   am
    11     4    54    1
    12     5     9    2
    13     6     7   am
    14     6    66    1
    15     7     8   am
    16     7    10    2
    17     8    52    1
    18    11    12    1
    19    11    15   am
    20    11    54    1
    21    12    13    1
    22    12    16    1
    23    12    87    1
    24    13    14    1
    25    13    18    1
    26    13    88    1
    27    14    15   am
    28    14    69    1
    29    15    19    2
    30    16    17   am
    31    16    52    1
    32    17    18   am
    33    17    20    2
    34    18    70    1
    35    21    22    1
    36    21    25   am
    37    21    68    1
    38    22    23    1
    39    22    26    1
    40    22    89    1
    41    23    24    1
    42    23    28    1
    43    23    90    1
    44    24    25   am
    45    24    51    1
    46    25    29    2
    47    26    27   am
    48    26    67    1
    49    27    28   am
    50    27    30    2
    51    28    53    1
    52    31    32    1
    53    31    35   am
    54    31    84    1
    55    32    33    1
    56    32    36    1
    57    32    91    1
    58    33    34    1
    59    33    38    1
    60    33    92    1
    61    34    35   am
    62    34    71    1
    63    35    39    2
    64    36    37   am
    65    36    83    1
    66    37    38   am
    67    37    40    2
    68    38    72    1
    69    41    42    1
    70    41    45   am
    71    41    69    1
    72    42    43    1
    73    42    46    1
    74    42    93    1
    75    43    44    1
    76    43    48    1
    77    43    94    1
    78    44    45   am
    79    44    71    1
    80    45    49    2
    81    46    47   am
    82    46    70    1
    83    47    48   am
    84    47    50    2
    85    48    72    1
    86    51    80    1
    87    51    95    1
    88    51    96    1
    89    52    97    1
    90    52    98    1
    91    53    76    1
    92    53    99    1
    93    53   100    1
    94    54   101    1
    95    54   102    1
    96    55    56    1
    97    55    59   am
    98    55    65    1
    99    56    57    1
   100    56    60    1
   101    56   103    1
   102    57    58    1
   103    57    62    1
   104    57   104    1
   105    58    59   am
   106    58    68    1
   107    59    63    2
   108    60    61   am
   109    60    66    1
   110    61    62   am
   111    61    64    2
   112    62    67    1
   113    65   105    1
   114    65   106    1
   115    66   107    1
   116    66   108    1
   117    67   109    1
   118    67   110    1
   119    68   111    1
   120    68   112    1
   121    69   113    1
   122    69   114    1
   123    70   115    1
   124    70   116    1
   125    71   117    1
   126    71   118    1
   127    72   119    1
   128    72   120    1
   129    73    74    1
   130    73    77   am
   131    73    83    1
   132    74    75    1
   133    74    78    1
   134    74   121    1
   135    75    76    1
   136    75    80    1
   137    75   122    1
   138    76    77   am
   139    77    81    2
   140    78    79   am
   141    78    84    1
   142    79    80   am
   143    79    82    2
   144    83   123    1
   145    83   124    1
   146    84   125    1
   147    84   126    1
