
     RDKit          3D

140161  0  0  1  0  0  0  0  0999 V2000
    1.4443   -0.5664   -5.0838 N   0  0  0  0  0  0  0  0  0  0  0  0
    1.2353    0.7501   -5.6182 C   0  0  1  0  0  0  0  0  0  0  0  0
   -0.3168    0.8652   -5.7366 C   0  0  1  0  0  0  0  0  0  0  0  0
   -0.7945   -0.4021   -5.2605 N   0  0  0  0  0  0  0  0  0  0  0  0
    0.2758   -1.2989   -5.3118 C   0  0  0  0  0  0  0  0  0  0  0  0
    1.5955    1.8208   -4.7318 N   0  0  0  0  0  0  0  0  0  0  0  0
    0.5260    2.7198   -4.7033 C   0  0  0  0  0  0  0  0  0  0  0  0
   -0.6450    1.9829   -4.8974 N   0  0  0  0  0  0  0  0  0  0  0  0
    0.2242   -2.4448   -5.7257 O   0  0  0  0  0  0  0  0  0  0  0  0
    0.6167    3.9356   -4.7490 O   0  0  0  0  0  0  0  0  0  0  0  0
   -2.9941   -0.3970   -4.4008 N   0  0  0  0  0  0  0  0  0  0  0  0
   -3.6617    0.8737   -4.4277 C   0  0  1  0  0  0  0  0  0  0  0  0
   -4.7221    0.7655   -3.2880 C   0  0  1  0  0  0  0  0  0  0  0  0
   -4.5221   -0.5526   -2.7541 N   0  0  0  0  0  0  0  0  0  0  0  0
   -3.8152   -1.2893   -3.7078 C   0  0  0  0  0  0  0  0  0  0  0  0
   -2.8450    1.9871   -4.0352 N   0  0  0  0  0  0  0  0  0  0  0  0
   -3.5670    2.7273   -3.0959 C   0  0  0  0  0  0  0  0  0  0  0  0
   -4.3785    1.8333   -2.3917 N   0  0  0  0  0  0  0  0  0  0  0  0
   -4.0506   -2.4406   -4.0354 O   0  0  0  0  0  0  0  0  0  0  0  0
   -3.6540    3.9440   -3.0640 O   0  0  0  0  0  0  0  0  0  0  0  0
    5.0953   -1.5568    0.2285 N   0  0  0  0  0  0  0  0  0  0  0  0
    5.7248   -0.4712    0.9263 C   0  0  2  0  0  0  0  0  0  0  0  0
    5.2569   -0.6522    2.4036 C   0  0  2  0  0  0  0  0  0  0  0  0
    4.4250   -1.8218    2.3625 N   0  0  0  0  0  0  0  0  0  0  0  0
    4.7178   -2.5065    1.1807 C   0  0  0  0  0  0  0  0  0  0  0  0
    5.2406    0.8316    0.5665 N   0  0  0  0  0  0  0  0  0  0  0  0
    4.9492    1.5163    1.7487 C   0  0  0  0  0  0  0  0  0  0  0  0
    4.5592    0.5681    2.6974 N   0  0  0  0  0  0  0  0  0  0  0  0
    4.8511   -3.7147    1.0723 O   0  0  0  0  0  0  0  0  0  0  0  0
    5.2142    2.6853    1.9779 O   0  0  0  0  0  0  0  0  0  0  0  0
   -1.6438   -1.8185    4.7166 N   0  0  0  0  0  0  0  0  0  0  0  0
   -2.2252   -0.6521    5.3197 C   0  0  2  0  0  0  0  0  0  0  0  0
   -3.5748   -0.4671    4.5588 C   0  0  2  0  0  0  0  0  0  0  0  0
   -3.5910   -1.5491    3.6154 N   0  0  0  0  0  0  0  0  0  0  0  0
   -2.6671   -2.5017    4.0529 C   0  0  0  0  0  0  0  0  0  0  0  0
   -1.5152    0.5700    5.0664 N   0  0  0  0  0  0  0  0  0  0  0  0
   -2.4489    1.5195    4.6446 C   0  0  0  0  0  0  0  0  0  0  0  0
   -3.4643    0.8379    3.9707 N   0  0  0  0  0  0  0  0  0  0  0  0
   -2.8438   -3.7090    4.0690 O   0  0  0  0  0  0  0  0  0  0  0  0
   -2.4912    2.6847    5.0046 O   0  0  0  0  0  0  0  0  0  0  0  0
   -5.2245   -0.8427   -0.5165 N   0  0  0  0  0  0  0  0  0  0  0  0
   -5.7970    0.3196    0.1026 C   0  0  1  0  0  0  0  0  0  0  0  0
   -5.5808    0.0784    1.6289 C   0  0  1  0  0  0  0  0  0  0  0  0
   -4.9091   -1.1890    1.6874 N   0  0  0  0  0  0  0  0  0  0  0  0
   -5.1149   -1.8321    0.4645 C   0  0  0  0  0  0  0  0  0  0  0  0
   -5.0932    1.5443   -0.1571 N   0  0  0  0  0  0  0  0  0  0  0  0
   -4.9054    2.1881    1.0688 C   0  0  0  0  0  0  0  0  0  0  0  0
   -4.7847    1.1977    2.0462 N   0  0  0  0  0  0  0  0  0  0  0  0
   -5.3871   -3.0126    0.3183 O   0  0  0  0  0  0  0  0  0  0  0  0
   -5.0642    3.3792    1.2785 O   0  0  0  0  0  0  0  0  0  0  0  0
    4.0368   -2.5203    3.5589 C   0  0  0  0  0  0  0  0  0  0  0  0
   -1.9337    2.6211   -4.9506 C   0  0  0  0  0  0  0  0  0  0  0  0
    4.2229    0.9470    4.0442 C   0  0  0  0  0  0  0  0  0  0  0  0
   -2.1488   -0.8355   -5.4792 C   0  0  0  0  0  0  0  0  0  0  0  0
    3.4780   -0.8589   -3.9137 N   0  0  0  0  0  0  0  0  0  0  0  0
    4.3222    0.3009   -3.8541 C   0  0  2  0  0  0  0  0  0  0  0  0
    5.1999    0.0636   -2.5859 C   0  0  2  0  0  0  0  0  0  0  0  0
    4.7449   -1.2013   -2.0820 N   0  0  0  0  0  0  0  0  0  0  0  0
    4.0667   -1.8469   -3.1190 C   0  0  0  0  0  0  0  0  0  0  0  0
    3.6338    1.5294   -3.5732 N   0  0  0  0  0  0  0  0  0  0  0  0
    4.3288    2.1749   -2.5478 C   0  0  0  0  0  0  0  0  0  0  0  0
    4.9003    1.1867   -1.7433 N   0  0  0  0  0  0  0  0  0  0  0  0
    4.1755   -3.0259   -3.4139 O   0  0  0  0  0  0  0  0  0  0  0  0
    4.5905    3.3658   -2.5056 O   0  0  0  0  0  0  0  0  0  0  0  0
    2.7376   -1.1975   -5.1006 C   0  0  0  0  0  0  0  0  0  0  0  0
    2.9556    2.2723   -4.6017 C   0  0  0  0  0  0  0  0  0  0  0  0
    5.7127    1.5214   -0.6045 C   0  0  0  0  0  0  0  0  0  0  0  0
    5.4932   -1.9412   -1.1000 C   0  0  0  0  0  0  0  0  0  0  0  0
   -5.4889   -1.1775   -1.8909 C   0  0  0  0  0  0  0  0  0  0  0  0
   -5.2866    2.2896   -1.3726 C   0  0  0  0  0  0  0  0  0  0  0  0
   -4.7888   -1.9302    2.9152 C   0  0  0  0  0  0  0  0  0  0  0  0
   -4.6066    1.5293    3.4346 C   0  0  0  0  0  0  0  0  0  0  0  0
    0.8369    0.4134    5.2257 N   0  0  0  0  0  0  0  0  0  0  0  0
    1.3432   -0.8848    5.5717 C   0  0  2  0  0  0  0  0  0  0  0  0
    2.7987   -0.8838    5.0096 C   0  0  2  0  0  0  0  0  0  0  0  0
    2.9375    0.4135    4.4097 N   0  0  0  0  0  0  0  0  0  0  0  0
    1.9336    1.2299    4.9367 C   0  0  0  0  0  0  0  0  0  0  0  0
    0.7087   -1.9769    4.8878 N   0  0  0  0  0  0  0  0  0  0  0  0
    1.7208   -2.7976    4.3828 C   0  0  0  0  0  0  0  0  0  0  0  0
    2.8105   -1.9777    4.0795 N   0  0  0  0  0  0  0  0  0  0  0  0
    2.0741    2.3871    5.2978 O   0  0  0  0  0  0  0  0  0  0  0  0
    1.7401   -4.0161    4.4324 O   0  0  0  0  0  0  0  0  0  0  0  0
   -0.3553    0.9472    5.8295 C   0  0  0  0  0  0  0  0  0  0  0  0
   -0.5479   -2.5228    5.3279 C   0  0  0  0  0  0  0  0  0  0  0  0
    1.7222    0.8631   -6.5945 H   0  0  0  0  0  0  0  0  0  0  0  0
   -0.6294    1.0423   -6.7729 H   0  0  0  0  0  0  0  0  0  0  0  0
   -4.1343    1.0525   -5.4014 H   0  0  0  0  0  0  0  0  0  0  0  0
   -5.7413    0.8856   -3.6750 H   0  0  0  0  0  0  0  0  0  0  0  0
    6.8169   -0.5255    0.8408 H   0  0  0  0  0  0  0  0  0  0  0  0
    6.1080   -0.7943    3.0808 H   0  0  0  0  0  0  0  0  0  0  0  0
   -2.3868   -0.8006    6.3943 H   0  0  0  0  0  0  0  0  0  0  0  0
   -4.4321   -0.5230    5.2407 H   0  0  0  0  0  0  0  0  0  0  0  0
   -6.8618    0.4153   -0.1425 H   0  0  0  0  0  0  0  0  0  0  0  0
   -6.5344    0.0465    2.1700 H   0  0  0  0  0  0  0  0  0  0  0  0
    4.8276   -2.4242    4.3117 H   0  0  0  0  0  0  0  0  0  0  0  0
    3.9115   -3.5865    3.3450 H   0  0  0  0  0  0  0  0  0  0  0  0
   -2.3328    2.5543   -5.9691 H   0  0  0  0  0  0  0  0  0  0  0  0
   -1.8345    3.6828   -4.7030 H   0  0  0  0  0  0  0  0  0  0  0  0
    4.2131    2.0381    4.1333 H   0  0  0  0  0  0  0  0  0  0  0  0
    4.9858    0.5657    4.7324 H   0  0  0  0  0  0  0  0  0  0  0  0
   -2.1832   -1.9266   -5.5608 H   0  0  0  0  0  0  0  0  0  0  0  0
   -2.5171   -0.4205   -6.4243 H   0  0  0  0  0  0  0  0  0  0  0  0
    4.9379    0.3904   -4.7577 H   0  0  0  0  0  0  0  0  0  0  0  0
    6.2673    0.0301   -2.8363 H   0  0  0  0  0  0  0  0  0  0  0  0
    3.2939   -0.8682   -5.9857 H   0  0  0  0  0  0  0  0  0  0  0  0
    2.6199   -2.2835   -5.1680 H   0  0  0  0  0  0  0  0  0  0  0  0
    2.9726    3.3400   -4.3626 H   0  0  0  0  0  0  0  0  0  0  0  0
    3.4787    2.1378   -5.5553 H   0  0  0  0  0  0  0  0  0  0  0  0
    5.6915    2.6026   -0.4355 H   0  0  0  0  0  0  0  0  0  0  0  0
    6.7529    1.2377   -0.8015 H   0  0  0  0  0  0  0  0  0  0  0  0
    6.5632   -1.7444   -1.2317 H   0  0  0  0  0  0  0  0  0  0  0  0
    5.3343   -3.0147   -1.2410 H   0  0  0  0  0  0  0  0  0  0  0  0
   -5.4591   -2.2637   -2.0226 H   0  0  0  0  0  0  0  0  0  0  0  0
   -6.4946   -0.8383   -2.1632 H   0  0  0  0  0  0  0  0  0  0  0  0
   -6.3187    2.1623   -1.7185 H   0  0  0  0  0  0  0  0  0  0  0  0
   -5.1296    3.3563   -1.1841 H   0  0  0  0  0  0  0  0  0  0  0  0
   -4.7711   -3.0037    2.7028 H   0  0  0  0  0  0  0  0  0  0  0  0
   -5.6609   -1.7324    3.5487 H   0  0  0  0  0  0  0  0  0  0  0  0
   -5.5034    1.2443    3.9964 H   0  0  0  0  0  0  0  0  0  0  0  0
   -4.4758    2.6102    3.5466 H   0  0  0  0  0  0  0  0  0  0  0  0
    1.3324   -1.0381    6.6577 H   0  0  0  0  0  0  0  0  0  0  0  0
    3.5374   -1.0328    5.8064 H   0  0  0  0  0  0  0  0  0  0  0  0
   -0.4505    0.5639    6.8517 H   0  0  0  0  0  0  0  0  0  0  0  0
   -0.2870    2.0378    5.8899 H   0  0  0  0  0  0  0  0  0  0  0  0
   -0.6006   -3.5861    5.0737 H   0  0  0  0  0  0  0  0  0  0  0  0
   -0.6211   -2.4385    6.4182 H   0  0  0  0  0  0  0  0  0  0  0  0
   -0.1317    2.5071   -0.3654 C   0  0  0  0  0  0  0  0  0  0  0  0
   -0.5647    2.8467    0.8549 C   0  0  0  0  0  0  0  0  0  0  0  0
   -0.5724    4.0548    1.4314 C   0  0  0  0  0  0  0  0  0  0  0  0
   -0.1491    5.2216    0.9301 C   0  0  0  0  0  0  0  0  0  0  0  0
    0.3864    5.4686   -0.2716 C   0  0  0  0  0  3  0  0  0  0  0  0
    0.6310    4.6096   -1.2687 C   0  0  0  0  0  0  0  0  0  0  0  0
    0.4004    3.2917   -1.3106 C   0  0  0  0  0  0  0  0  0  0  0  0
   -0.2249    1.4508   -0.6241 H   0  0  0  0  0  0  0  0  0  0  0  0
   -0.9641    2.0307    1.4597 H   0  0  0  0  0  0  0  0  0  0  0  0
   -0.9774    4.0935    2.4442 H   0  0  0  0  0  0  0  0  0  0  0  0
   -0.2547    6.0859    1.5882 H   0  0  0  0  0  0  0  0  0  0  0  0
    0.6599    6.5075   -0.4638 H   0  0  0  0  0  0  0  0  0  0  0  0
    1.0775    5.0410   -2.1665 H   0  0  0  0  0  0  0  0  0  0  0  0
    0.6838    2.7905   -2.2379 H   0  0  0  0  0  0  0  0  0  0  0  0
  1  5  1  0
  1 65  1  0
  2  1  1  0
  2  6  1  0
  2  3  1  0
  2 85  1  6
  3  4  1  0
  3  8  1  0
  3 86  1  6
  4  5  1  0
  5  9  2  0
  6 66  1  0
  6  7  1  0
  7 10  2  0
  8 52  1  0
  8  7  1  0
 11 15  1  0
 12 11  1  0
 12 16  1  0
 12 13  1  0
 12 87  1  6
 13 14  1  0
 13 18  1  0
 13 88  1  6
 14 69  1  0
 15 19  2  0
 15 14  1  0
 16 17  1  0
 17 18  1  0
 17 20  2  0
 18 70  1  0
 21 25  1  0
 22 21  1  0
 22 23  1  0
 22 89  1  1
 23 24  1  0
 23 28  1  0
 23 90  1  1
 24 51  1  0
 25 24  1  0
 26 22  1  0
 26 27  1  0
 27 28  1  0
 28 53  1  0
 29 25  2  0
 30 27  2  0
 31 84  1  0
 32 31  1  0
 32 33  1  0
 32 91  1  1
 33 34  1  0
 33 92  1  1
 34 35  1  0
 35 31  1  0
 36 32  1  0
 36 83  1  0
 37 36  1  0
 38 37  1  0
 38 33  1  0
 39 35  2  0
 40 37  2  0
 41 45  1  0
 42 41  1  0
 42 43  1  0
 42 93  1  1
 43 44  1  0
 43 48  1  0
 43 94  1  1
 44 71  1  0
 45 44  1  0
 46 42  1  0
 46 47  1  0
 47 50  2  0
 47 48  1  0
 48 72  1  0
 49 45  2  0
 51 80  1  0
 51 95  1  0
 51 96  1  0
 52 16  1  0
 52 97  1  0
 52 98  1  0
 53 76  1  0
 53 99  1  0
 53100  1  0
 54  4  1  0
 54 11  1  0
 54101  1  0
 54102  1  0
 55 59  1  0
 56 55  1  0
 56 60  1  0
 56 57  1  0
 56103  1  6
 57 58  1  0
 57 62  1  0
 57104  1  6
 58 68  1  0
 59 63  2  0
 59 58  1  0
 60 61  1  0
 61 64  2  0
 61 62  1  0
 62 67  1  0
 65 55  1  0
 65105  1  0
 65106  1  0
 66 60  1  0
 66107  1  0
 66108  1  0
 67 26  1  0
 67109  1  0
 67110  1  0
 68 21  1  0
 68111  1  0
 68112  1  0
 69 41  1  0
 69113  1  0
 69114  1  0
 70 46  1  0
 70115  1  0
 70116  1  0
 71 34  1  0
 71117  1  0
 71118  1  0
 72 38  1  0
 72119  1  0
 72120  1  0
 73 74  1  0
 73 83  1  0
 74 78  1  0
 74 75  1  0
 74121  1  1
 75 80  1  0
 75122  1  1
 76 77  1  0
 76 75  1  0
 77 73  1  0
 78 84  1  0
 79 78  1  0
 80 79  1  0
 81 77  2  0
 82 79  2  0
 83123  1  0
 83124  1  0
 84125  1  0
 84126  1  0
127128  2  0
128129  1  0
129130  2  0
130131  1  0
131132  1  0
132133  2  0
133127  1  0
127134  1  0
128135  1  0
129136  1  0
130137  1  0
131138  1  0
132139  1  0
133140  1  0
M  CHG  1 131   1
M  END
>  <0_score>  (1) 
-1554.3397726930152

>  <1_score>  (1) 
-1554.339772690159

>  <2_score>  (1) 
-1554.3397726893772

>  <3_score>  (1) 
-1554.3397726881096

>  <4_score>  (1) 
-1554.3397726873966

>  <5_score>  (1) 
-1554.3397726873825

>  <6_score>  (1) 
-1554.3397726858843

>  <7_score>  (1) 
-1554.3397726841263

>  <8_score>  (1) 
-1554.3397726837743

>  <9_score>  (1) 
-1554.3397726836852

>  <10_score>  (1) 
-1554.3397726836067

>  <11_score>  (1) 
-1554.3397726835856

>  <12_score>  (1) 
-1554.3397726828998

>  <13_score>  (1) 
-1554.3397726825483

>  <14_score>  (1) 
-1554.3397726817623

>  <15_score>  (1) 
-1554.3397726817191

>  <16_score>  (1) 
-1554.3397726811709

>  <17_score>  (1) 
-1554.3397726794165

$$$$

     RDKit          3D

140161  0  0  1  0  0  0  0  0999 V2000
    1.4443   -0.5664   -5.0838 N   0  0  0  0  0  0  0  0  0  0  0  0
    1.2353    0.7501   -5.6182 C   0  0  1  0  0  0  0  0  0  0  0  0
   -0.3168    0.8652   -5.7366 C   0  0  1  0  0  0  0  0  0  0  0  0
   -0.7945   -0.4021   -5.2605 N   0  0  0  0  0  0  0  0  0  0  0  0
    0.2758   -1.2989   -5.3118 C   0  0  0  0  0  0  0  0  0  0  0  0
    1.5955    1.8208   -4.7318 N   0  0  0  0  0  0  0  0  0  0  0  0
    0.5260    2.7198   -4.7033 C   0  0  0  0  0  0  0  0  0  0  0  0
   -0.6450    1.9829   -4.8974 N   0  0  0  0  0  0  0  0  0  0  0  0
    0.2242   -2.4448   -5.7257 O   0  0  0  0  0  0  0  0  0  0  0  0
    0.6167    3.9356   -4.7490 O   0  0  0  0  0  0  0  0  0  0  0  0
   -2.9941   -0.3970   -4.4008 N   0  0  0  0  0  0  0  0  0  0  0  0
   -3.6617    0.8737   -4.4277 C   0  0  1  0  0  0  0  0  0  0  0  0
   -4.7221    0.7655   -3.2880 C   0  0  1  0  0  0  0  0  0  0  0  0
   -4.5221   -0.5526   -2.7541 N   0  0  0  0  0  0  0  0  0  0  0  0
   -3.8152   -1.2893   -3.7078 C   0  0  0  0  0  0  0  0  0  0  0  0
   -2.8450    1.9871   -4.0352 N   0  0  0  0  0  0  0  0  0  0  0  0
   -3.5670    2.7273   -3.0959 C   0  0  0  0  0  0  0  0  0  0  0  0
   -4.3785    1.8333   -2.3917 N   0  0  0  0  0  0  0  0  0  0  0  0
   -4.0506   -2.4406   -4.0354 O   0  0  0  0  0  0  0  0  0  0  0  0
   -3.6540    3.9440   -3.0640 O   0  0  0  0  0  0  0  0  0  0  0  0
    5.0953   -1.5568    0.2285 N   0  0  0  0  0  0  0  0  0  0  0  0
    5.7248   -0.4712    0.9263 C   0  0  2  0  0  0  0  0  0  0  0  0
    5.2569   -0.6522    2.4036 C   0  0  2  0  0  0  0  0  0  0  0  0
    4.4250   -1.8218    2.3625 N   0  0  0  0  0  0  0  0  0  0  0  0
    4.7178   -2.5065    1.1807 C   0  0  0  0  0  0  0  0  0  0  0  0
    5.2406    0.8316    0.5665 N   0  0  0  0  0  0  0  0  0  0  0  0
    4.9492    1.5163    1.7487 C   0  0  0  0  0  0  0  0  0  0  0  0
    4.5592    0.5681    2.6974 N   0  0  0  0  0  0  0  0  0  0  0  0
    4.8511   -3.7147    1.0723 O   0  0  0  0  0  0  0  0  0  0  0  0
    5.2142    2.6853    1.9779 O   0  0  0  0  0  0  0  0  0  0  0  0
   -1.6438   -1.8185    4.7166 N   0  0  0  0  0  0  0  0  0  0  0  0
   -2.2252   -0.6521    5.3197 C   0  0  2  0  0  0  0  0  0  0  0  0
   -3.5748   -0.4671    4.5588 C   0  0  2  0  0  0  0  0  0  0  0  0
   -3.5910   -1.5491    3.6154 N   0  0  0  0  0  0  0  0  0  0  0  0
   -2.6671   -2.5017    4.0529 C   0  0  0  0  0  0  0  0  0  0  0  0
   -1.5152    0.5700    5.0664 N   0  0  0  0  0  0  0  0  0  0  0  0
   -2.4489    1.5195    4.6446 C   0  0  0  0  0  0  0  0  0  0  0  0
   -3.4643    0.8379    3.9707 N   0  0  0  0  0  0  0  0  0  0  0  0
   -2.8438   -3.7090    4.0690 O   0  0  0  0  0  0  0  0  0  0  0  0
   -2.4912    2.6847    5.0046 O   0  0  0  0  0  0  0  0  0  0  0  0
   -5.2245   -0.8427   -0.5165 N   0  0  0  0  0  0  0  0  0  0  0  0
   -5.7970    0.3196    0.1026 C   0  0  1  0  0  0  0  0  0  0  0  0
   -5.5808    0.0784    1.6289 C   0  0  1  0  0  0  0  0  0  0  0  0
   -4.9091   -1.1890    1.6874 N   0  0  0  0  0  0  0  0  0  0  0  0
   -5.1149   -1.8321    0.4645 C   0  0  0  0  0  0  0  0  0  0  0  0
   -5.0932    1.5443   -0.1571 N   0  0  0  0  0  0  0  0  0  0  0  0
   -4.9054    2.1881    1.0688 C   0  0  0  0  0  0  0  0  0  0  0  0
   -4.7847    1.1977    2.0462 N   0  0  0  0  0  0  0  0  0  0  0  0
   -5.3871   -3.0126    0.3183 O   0  0  0  0  0  0  0  0  0  0  0  0
   -5.0642    3.3792    1.2785 O   0  0  0  0  0  0  0  0  0  0  0  0
    4.0368   -2.5203    3.5589 C   0  0  0  0  0  0  0  0  0  0  0  0
   -1.9337    2.6211   -4.9506 C   0  0  0  0  0  0  0  0  0  0  0  0
    4.2229    0.9470    4.0442 C   0  0  0  0  0  0  0  0  0  0  0  0
   -2.1488   -0.8355   -5.4792 C   0  0  0  0  0  0  0  0  0  0  0  0
    3.4780   -0.8589   -3.9137 N   0  0  0  0  0  0  0  0  0  0  0  0
    4.3222    0.3009   -3.8541 C   0  0  2  0  0  0  0  0  0  0  0  0
    5.1999    0.0636   -2.5859 C   0  0  2  0  0  0  0  0  0  0  0  0
    4.7449   -1.2013   -2.0820 N   0  0  0  0  0  0  0  0  0  0  0  0
    4.0667   -1.8469   -3.1190 C   0  0  0  0  0  0  0  0  0  0  0  0
    3.6338    1.5294   -3.5732 N   0  0  0  0  0  0  0  0  0  0  0  0
    4.3288    2.1749   -2.5478 C   0  0  0  0  0  0  0  0  0  0  0  0
    4.9003    1.1867   -1.7433 N   0  0  0  0  0  0  0  0  0  0  0  0
    4.1755   -3.0259   -3.4139 O   0  0  0  0  0  0  0  0  0  0  0  0
    4.5905    3.3658   -2.5056 O   0  0  0  0  0  0  0  0  0  0  0  0
    2.7376   -1.1975   -5.1006 C   0  0  0  0  0  0  0  0  0  0  0  0
    2.9556    2.2723   -4.6017 C   0  0  0  0  0  0  0  0  0  0  0  0
    5.7127    1.5214   -0.6045 C   0  0  0  0  0  0  0  0  0  0  0  0
    5.4932   -1.9412   -1.1000 C   0  0  0  0  0  0  0  0  0  0  0  0
   -5.4889   -1.1775   -1.8909 C   0  0  0  0  0  0  0  0  0  0  0  0
   -5.2866    2.2896   -1.3726 C   0  0  0  0  0  0  0  0  0  0  0  0
   -4.7888   -1.9302    2.9152 C   0  0  0  0  0  0  0  0  0  0  0  0
   -4.6066    1.5293    3.4346 C   0  0  0  0  0  0  0  0  0  0  0  0
    0.8369    0.4134    5.2257 N   0  0  0  0  0  0  0  0  0  0  0  0
    1.3432   -0.8848    5.5717 C   0  0  2  0  0  0  0  0  0  0  0  0
    2.7987   -0.8838    5.0096 C   0  0  2  0  0  0  0  0  0  0  0  0
    2.9375    0.4135    4.4097 N   0  0  0  0  0  0  0  0  0  0  0  0
    1.9336    1.2299    4.9367 C   0  0  0  0  0  0  0  0  0  0  0  0
    0.7087   -1.9769    4.8878 N   0  0  0  0  0  0  0  0  0  0  0  0
    1.7208   -2.7976    4.3828 C   0  0  0  0  0  0  0  0  0  0  0  0
    2.8105   -1.9777    4.0795 N   0  0  0  0  0  0  0  0  0  0  0  0
    2.0741    2.3871    5.2978 O   0  0  0  0  0  0  0  0  0  0  0  0
    1.7401   -4.0161    4.4324 O   0  0  0  0  0  0  0  0  0  0  0  0
   -0.3553    0.9472    5.8295 C   0  0  0  0  0  0  0  0  0  0  0  0
   -0.5479   -2.5228    5.3279 C   0  0  0  0  0  0  0  0  0  0  0  0
    1.7222    0.8631   -6.5945 H   0  0  0  0  0  0  0  0  0  0  0  0
   -0.6294    1.0423   -6.7729 H   0  0  0  0  0  0  0  0  0  0  0  0
   -4.1343    1.0525   -5.4014 H   0  0  0  0  0  0  0  0  0  0  0  0
   -5.7413    0.8856   -3.6750 H   0  0  0  0  0  0  0  0  0  0  0  0
    6.8169   -0.5255    0.8408 H   0  0  0  0  0  0  0  0  0  0  0  0
    6.1080   -0.7943    3.0808 H   0  0  0  0  0  0  0  0  0  0  0  0
   -2.3868   -0.8006    6.3943 H   0  0  0  0  0  0  0  0  0  0  0  0
   -4.4321   -0.5230    5.2407 H   0  0  0  0  0  0  0  0  0  0  0  0
   -6.8618    0.4153   -0.1425 H   0  0  0  0  0  0  0  0  0  0  0  0
   -6.5344    0.0465    2.1700 H   0  0  0  0  0  0  0  0  0  0  0  0
    4.8276   -2.4242    4.3117 H   0  0  0  0  0  0  0  0  0  0  0  0
    3.9115   -3.5865    3.3450 H   0  0  0  0  0  0  0  0  0  0  0  0
   -2.3328    2.5543   -5.9691 H   0  0  0  0  0  0  0  0  0  0  0  0
   -1.8345    3.6828   -4.7030 H   0  0  0  0  0  0  0  0  0  0  0  0
    4.2131    2.0381    4.1333 H   0  0  0  0  0  0  0  0  0  0  0  0
    4.9858    0.5657    4.7324 H   0  0  0  0  0  0  0  0  0  0  0  0
   -2.1832   -1.9266   -5.5608 H   0  0  0  0  0  0  0  0  0  0  0  0
   -2.5171   -0.4205   -6.4243 H   0  0  0  0  0  0  0  0  0  0  0  0
    4.9379    0.3904   -4.7577 H   0  0  0  0  0  0  0  0  0  0  0  0
    6.2673    0.0301   -2.8363 H   0  0  0  0  0  0  0  0  0  0  0  0
    3.2939   -0.8682   -5.9857 H   0  0  0  0  0  0  0  0  0  0  0  0
    2.6199   -2.2835   -5.1680 H   0  0  0  0  0  0  0  0  0  0  0  0
    2.9726    3.3400   -4.3626 H   0  0  0  0  0  0  0  0  0  0  0  0
    3.4787    2.1378   -5.5553 H   0  0  0  0  0  0  0  0  0  0  0  0
    5.6915    2.6026   -0.4355 H   0  0  0  0  0  0  0  0  0  0  0  0
    6.7529    1.2377   -0.8015 H   0  0  0  0  0  0  0  0  0  0  0  0
    6.5632   -1.7444   -1.2317 H   0  0  0  0  0  0  0  0  0  0  0  0
    5.3343   -3.0147   -1.2410 H   0  0  0  0  0  0  0  0  0  0  0  0
   -5.4591   -2.2637   -2.0226 H   0  0  0  0  0  0  0  0  0  0  0  0
   -6.4946   -0.8383   -2.1632 H   0  0  0  0  0  0  0  0  0  0  0  0
   -6.3187    2.1623   -1.7185 H   0  0  0  0  0  0  0  0  0  0  0  0
   -5.1296    3.3563   -1.1841 H   0  0  0  0  0  0  0  0  0  0  0  0
   -4.7711   -3.0037    2.7028 H   0  0  0  0  0  0  0  0  0  0  0  0
   -5.6609   -1.7324    3.5487 H   0  0  0  0  0  0  0  0  0  0  0  0
   -5.5034    1.2443    3.9964 H   0  0  0  0  0  0  0  0  0  0  0  0
   -4.4758    2.6102    3.5466 H   0  0  0  0  0  0  0  0  0  0  0  0
    1.3324   -1.0381    6.6577 H   0  0  0  0  0  0  0  0  0  0  0  0
    3.5374   -1.0328    5.8064 H   0  0  0  0  0  0  0  0  0  0  0  0
   -0.4505    0.5639    6.8517 H   0  0  0  0  0  0  0  0  0  0  0  0
   -0.2870    2.0378    5.8899 H   0  0  0  0  0  0  0  0  0  0  0  0
   -0.6006   -3.5861    5.0737 H   0  0  0  0  0  0  0  0  0  0  0  0
   -0.6211   -2.4385    6.4182 H   0  0  0  0  0  0  0  0  0  0  0  0
   -0.1317    1.1738   -0.3654 C   0  0  0  0  0  0  0  0  0  0  0  0
   -0.5647    1.5134    0.8549 C   0  0  0  0  0  0  0  0  0  0  0  0
   -0.5724    2.7215    1.4314 C   0  0  0  0  0  0  0  0  0  0  0  0
   -0.1491    3.8882    0.9301 C   0  0  0  0  0  0  0  0  0  0  0  0
    0.3864    4.1352   -0.2716 C   0  0  0  0  0  3  0  0  0  0  0  0
    0.6310    3.2763   -1.2687 C   0  0  0  0  0  0  0  0  0  0  0  0
    0.4004    1.9584   -1.3106 C   0  0  0  0  0  0  0  0  0  0  0  0
   -0.2249    0.1174   -0.6241 H   0  0  0  0  0  0  0  0  0  0  0  0
   -0.9641    0.6974    1.4597 H   0  0  0  0  0  0  0  0  0  0  0  0
   -0.9774    2.7602    2.4442 H   0  0  0  0  0  0  0  0  0  0  0  0
   -0.2547    4.7526    1.5882 H   0  0  0  0  0  0  0  0  0  0  0  0
    0.6599    5.1742   -0.4638 H   0  0  0  0  0  0  0  0  0  0  0  0
    1.0775    3.7076   -2.1665 H   0  0  0  0  0  0  0  0  0  0  0  0
    0.6838    1.4571   -2.2379 H   0  0  0  0  0  0  0  0  0  0  0  0
  1  5  1  0
  1 65  1  0
  2  1  1  0
  2  6  1  0
  2  3  1  0
  2 85  1  6
  3  4  1  0
  3  8  1  0
  3 86  1  6
  4  5  1  0
  5  9  2  0
  6 66  1  0
  6  7  1  0
  7 10  2  0
  8 52  1  0
  8  7  1  0
 11 15  1  0
 12 11  1  0
 12 16  1  0
 12 13  1  0
 12 87  1  6
 13 14  1  0
 13 18  1  0
 13 88  1  6
 14 69  1  0
 15 19  2  0
 15 14  1  0
 16 17  1  0
 17 18  1  0
 17 20  2  0
 18 70  1  0
 21 25  1  0
 22 21  1  0
 22 23  1  0
 22 89  1  1
 23 24  1  0
 23 28  1  0
 23 90  1  1
 24 51  1  0
 25 24  1  0
 26 22  1  0
 26 27  1  0
 27 28  1  0
 28 53  1  0
 29 25  2  0
 30 27  2  0
 31 84  1  0
 32 31  1  0
 32 33  1  0
 32 91  1  1
 33 34  1  0
 33 92  1  1
 34 35  1  0
 35 31  1  0
 36 32  1  0
 36 83  1  0
 37 36  1  0
 38 37  1  0
 38 33  1  0
 39 35  2  0
 40 37  2  0
 41 45  1  0
 42 41  1  0
 42 43  1  0
 42 93  1  1
 43 44  1  0
 43 48  1  0
 43 94  1  1
 44 71  1  0
 45 44  1  0
 46 42  1  0
 46 47  1  0
 47 50  2  0
 47 48  1  0
 48 72  1  0
 49 45  2  0
 51 80  1  0
 51 95  1  0
 51 96  1  0
 52 16  1  0
 52 97  1  0
 52 98  1  0
 53 76  1  0
 53 99  1  0
 53100  1  0
 54  4  1  0
 54 11  1  0
 54101  1  0
 54102  1  0
 55 59  1  0
 56 55  1  0
 56 60  1  0
 56 57  1  0
 56103  1  6
 57 58  1  0
 57 62  1  0
 57104  1  6
 58 68  1  0
 59 63  2  0
 59 58  1  0
 60 61  1  0
 61 64  2  0
 61 62  1  0
 62 67  1  0
 65 55  1  0
 65105  1  0
 65106  1  0
 66 60  1  0
 66107  1  0
 66108  1  0
 67 26  1  0
 67109  1  0
 67110  1  0
 68 21  1  0
 68111  1  0
 68112  1  0
 69 41  1  0
 69113  1  0
 69114  1  0
 70 46  1  0
 70115  1  0
 70116  1  0
 71 34  1  0
 71117  1  0
 71118  1  0
 72 38  1  0
 72119  1  0
 72120  1  0
 73 74  1  0
 73 83  1  0
 74 78  1  0
 74 75  1  0
 74121  1  1
 75 80  1  0
 75122  1  1
 76 77  1  0
 76 75  1  0
 77 73  1  0
 78 84  1  0
 79 78  1  0
 80 79  1  0
 81 77  2  0
 82 79  2  0
 83123  1  0
 83124  1  0
 84125  1  0
 84126  1  0
127128  2  0
128129  1  0
129130  2  0
130131  1  0
131132  1  0
132133  2  0
133127  1  0
127134  1  0
128135  1  0
129136  1  0
130137  1  0
131138  1  0
132139  1  0
133140  1  0
M  CHG  1 131   1
M  END
>  <0_score>  (2) 
-1554.3397726930152

>  <1_score>  (2) 
-1554.339772690159

>  <2_score>  (2) 
-1554.3397726893772

>  <3_score>  (2) 
-1554.3397726881096

>  <4_score>  (2) 
-1554.3397726873966

>  <5_score>  (2) 
-1554.3397726873825

>  <6_score>  (2) 
-1554.3397726858843

>  <7_score>  (2) 
-1554.3397726841263

>  <8_score>  (2) 
-1554.3397726837743

>  <9_score>  (2) 
-1554.3397726836852

>  <10_score>  (2) 
-1554.3397726836067

>  <11_score>  (2) 
-1554.3397726835856

>  <12_score>  (2) 
-1554.3397726828998

>  <13_score>  (2) 
-1554.3397726825483

>  <14_score>  (2) 
-1554.3397726817623

>  <15_score>  (2) 
-1554.3397726817191

>  <16_score>  (2) 
-1554.3397726811709

>  <17_score>  (2) 
-1554.3397726794165

$$$$

     RDKit          3D

140161  0  0  1  0  0  0  0  0999 V2000
    1.4443   -0.5664   -5.0838 N   0  0  0  0  0  0  0  0  0  0  0  0
    1.2353    0.7501   -5.6182 C   0  0  1  0  0  0  0  0  0  0  0  0
   -0.3168    0.8652   -5.7366 C   0  0  1  0  0  0  0  0  0  0  0  0
   -0.7945   -0.4021   -5.2605 N   0  0  0  0  0  0  0  0  0  0  0  0
    0.2758   -1.2989   -5.3118 C   0  0  0  0  0  0  0  0  0  0  0  0
    1.5955    1.8208   -4.7318 N   0  0  0  0  0  0  0  0  0  0  0  0
    0.5260    2.7198   -4.7033 C   0  0  0  0  0  0  0  0  0  0  0  0
   -0.6450    1.9829   -4.8974 N   0  0  0  0  0  0  0  0  0  0  0  0
    0.2242   -2.4448   -5.7257 O   0  0  0  0  0  0  0  0  0  0  0  0
    0.6167    3.9356   -4.7490 O   0  0  0  0  0  0  0  0  0  0  0  0
   -2.9941   -0.3970   -4.4008 N   0  0  0  0  0  0  0  0  0  0  0  0
   -3.6617    0.8737   -4.4277 C   0  0  1  0  0  0  0  0  0  0  0  0
   -4.7221    0.7655   -3.2880 C   0  0  1  0  0  0  0  0  0  0  0  0
   -4.5221   -0.5526   -2.7541 N   0  0  0  0  0  0  0  0  0  0  0  0
   -3.8152   -1.2893   -3.7078 C   0  0  0  0  0  0  0  0  0  0  0  0
   -2.8450    1.9871   -4.0352 N   0  0  0  0  0  0  0  0  0  0  0  0
   -3.5670    2.7273   -3.0959 C   0  0  0  0  0  0  0  0  0  0  0  0
   -4.3785    1.8333   -2.3917 N   0  0  0  0  0  0  0  0  0  0  0  0
   -4.0506   -2.4406   -4.0354 O   0  0  0  0  0  0  0  0  0  0  0  0
   -3.6540    3.9440   -3.0640 O   0  0  0  0  0  0  0  0  0  0  0  0
    5.0953   -1.5568    0.2285 N   0  0  0  0  0  0  0  0  0  0  0  0
    5.7248   -0.4712    0.9263 C   0  0  2  0  0  0  0  0  0  0  0  0
    5.2569   -0.6522    2.4036 C   0  0  2  0  0  0  0  0  0  0  0  0
    4.4250   -1.8218    2.3625 N   0  0  0  0  0  0  0  0  0  0  0  0
    4.7178   -2.5065    1.1807 C   0  0  0  0  0  0  0  0  0  0  0  0
    5.2406    0.8316    0.5665 N   0  0  0  0  0  0  0  0  0  0  0  0
    4.9492    1.5163    1.7487 C   0  0  0  0  0  0  0  0  0  0  0  0
    4.5592    0.5681    2.6974 N   0  0  0  0  0  0  0  0  0  0  0  0
    4.8511   -3.7147    1.0723 O   0  0  0  0  0  0  0  0  0  0  0  0
    5.2142    2.6853    1.9779 O   0  0  0  0  0  0  0  0  0  0  0  0
   -1.6438   -1.8185    4.7166 N   0  0  0  0  0  0  0  0  0  0  0  0
   -2.2252   -0.6521    5.3197 C   0  0  2  0  0  0  0  0  0  0  0  0
   -3.5748   -0.4671    4.5588 C   0  0  2  0  0  0  0  0  0  0  0  0
   -3.5910   -1.5491    3.6154 N   0  0  0  0  0  0  0  0  0  0  0  0
   -2.6671   -2.5017    4.0529 C   0  0  0  0  0  0  0  0  0  0  0  0
   -1.5152    0.5700    5.0664 N   0  0  0  0  0  0  0  0  0  0  0  0
   -2.4489    1.5195    4.6446 C   0  0  0  0  0  0  0  0  0  0  0  0
   -3.4643    0.8379    3.9707 N   0  0  0  0  0  0  0  0  0  0  0  0
   -2.8438   -3.7090    4.0690 O   0  0  0  0  0  0  0  0  0  0  0  0
   -2.4912    2.6847    5.0046 O   0  0  0  0  0  0  0  0  0  0  0  0
   -5.2245   -0.8427   -0.5165 N   0  0  0  0  0  0  0  0  0  0  0  0
   -5.7970    0.3196    0.1026 C   0  0  1  0  0  0  0  0  0  0  0  0
   -5.5808    0.0784    1.6289 C   0  0  1  0  0  0  0  0  0  0  0  0
   -4.9091   -1.1890    1.6874 N   0  0  0  0  0  0  0  0  0  0  0  0
   -5.1149   -1.8321    0.4645 C   0  0  0  0  0  0  0  0  0  0  0  0
   -5.0932    1.5443   -0.1571 N   0  0  0  0  0  0  0  0  0  0  0  0
   -4.9054    2.1881    1.0688 C   0  0  0  0  0  0  0  0  0  0  0  0
   -4.7847    1.1977    2.0462 N   0  0  0  0  0  0  0  0  0  0  0  0
   -5.3871   -3.0126    0.3183 O   0  0  0  0  0  0  0  0  0  0  0  0
   -5.0642    3.3792    1.2785 O   0  0  0  0  0  0  0  0  0  0  0  0
    4.0368   -2.5203    3.5589 C   0  0  0  0  0  0  0  0  0  0  0  0
   -1.9337    2.6211   -4.9506 C   0  0  0  0  0  0  0  0  0  0  0  0
    4.2229    0.9470    4.0442 C   0  0  0  0  0  0  0  0  0  0  0  0
   -2.1488   -0.8355   -5.4792 C   0  0  0  0  0  0  0  0  0  0  0  0
    3.4780   -0.8589   -3.9137 N   0  0  0  0  0  0  0  0  0  0  0  0
    4.3222    0.3009   -3.8541 C   0  0  2  0  0  0  0  0  0  0  0  0
    5.1999    0.0636   -2.5859 C   0  0  2  0  0  0  0  0  0  0  0  0
    4.7449   -1.2013   -2.0820 N   0  0  0  0  0  0  0  0  0  0  0  0
    4.0667   -1.8469   -3.1190 C   0  0  0  0  0  0  0  0  0  0  0  0
    3.6338    1.5294   -3.5732 N   0  0  0  0  0  0  0  0  0  0  0  0
    4.3288    2.1749   -2.5478 C   0  0  0  0  0  0  0  0  0  0  0  0
    4.9003    1.1867   -1.7433 N   0  0  0  0  0  0  0  0  0  0  0  0
    4.1755   -3.0259   -3.4139 O   0  0  0  0  0  0  0  0  0  0  0  0
    4.5905    3.3658   -2.5056 O   0  0  0  0  0  0  0  0  0  0  0  0
    2.7376   -1.1975   -5.1006 C   0  0  0  0  0  0  0  0  0  0  0  0
    2.9556    2.2723   -4.6017 C   0  0  0  0  0  0  0  0  0  0  0  0
    5.7127    1.5214   -0.6045 C   0  0  0  0  0  0  0  0  0  0  0  0
    5.4932   -1.9412   -1.1000 C   0  0  0  0  0  0  0  0  0  0  0  0
   -5.4889   -1.1775   -1.8909 C   0  0  0  0  0  0  0  0  0  0  0  0
   -5.2866    2.2896   -1.3726 C   0  0  0  0  0  0  0  0  0  0  0  0
   -4.7888   -1.9302    2.9152 C   0  0  0  0  0  0  0  0  0  0  0  0
   -4.6066    1.5293    3.4346 C   0  0  0  0  0  0  0  0  0  0  0  0
    0.8369    0.4134    5.2257 N   0  0  0  0  0  0  0  0  0  0  0  0
    1.3432   -0.8848    5.5717 C   0  0  2  0  0  0  0  0  0  0  0  0
    2.7987   -0.8838    5.0096 C   0  0  2  0  0  0  0  0  0  0  0  0
    2.9375    0.4135    4.4097 N   0  0  0  0  0  0  0  0  0  0  0  0
    1.9336    1.2299    4.9367 C   0  0  0  0  0  0  0  0  0  0  0  0
    0.7087   -1.9769    4.8878 N   0  0  0  0  0  0  0  0  0  0  0  0
    1.7208   -2.7976    4.3828 C   0  0  0  0  0  0  0  0  0  0  0  0
    2.8105   -1.9777    4.0795 N   0  0  0  0  0  0  0  0  0  0  0  0
    2.0741    2.3871    5.2978 O   0  0  0  0  0  0  0  0  0  0  0  0
    1.7401   -4.0161    4.4324 O   0  0  0  0  0  0  0  0  0  0  0  0
   -0.3553    0.9472    5.8295 C   0  0  0  0  0  0  0  0  0  0  0  0
   -0.5479   -2.5228    5.3279 C   0  0  0  0  0  0  0  0  0  0  0  0
    1.7222    0.8631   -6.5945 H   0  0  0  0  0  0  0  0  0  0  0  0
   -0.6294    1.0423   -6.7729 H   0  0  0  0  0  0  0  0  0  0  0  0
   -4.1343    1.0525   -5.4014 H   0  0  0  0  0  0  0  0  0  0  0  0
   -5.7413    0.8856   -3.6750 H   0  0  0  0  0  0  0  0  0  0  0  0
    6.8169   -0.5255    0.8408 H   0  0  0  0  0  0  0  0  0  0  0  0
    6.1080   -0.7943    3.0808 H   0  0  0  0  0  0  0  0  0  0  0  0
   -2.3868   -0.8006    6.3943 H   0  0  0  0  0  0  0  0  0  0  0  0
   -4.4321   -0.5230    5.2407 H   0  0  0  0  0  0  0  0  0  0  0  0
   -6.8618    0.4153   -0.1425 H   0  0  0  0  0  0  0  0  0  0  0  0
   -6.5344    0.0465    2.1700 H   0  0  0  0  0  0  0  0  0  0  0  0
    4.8276   -2.4242    4.3117 H   0  0  0  0  0  0  0  0  0  0  0  0
    3.9115   -3.5865    3.3450 H   0  0  0  0  0  0  0  0  0  0  0  0
   -2.3328    2.5543   -5.9691 H   0  0  0  0  0  0  0  0  0  0  0  0
   -1.8345    3.6828   -4.7030 H   0  0  0  0  0  0  0  0  0  0  0  0
    4.2131    2.0381    4.1333 H   0  0  0  0  0  0  0  0  0  0  0  0
    4.9858    0.5657    4.7324 H   0  0  0  0  0  0  0  0  0  0  0  0
   -2.1832   -1.9266   -5.5608 H   0  0  0  0  0  0  0  0  0  0  0  0
   -2.5171   -0.4205   -6.4243 H   0  0  0  0  0  0  0  0  0  0  0  0
    4.9379    0.3904   -4.7577 H   0  0  0  0  0  0  0  0  0  0  0  0
    6.2673    0.0301   -2.8363 H   0  0  0  0  0  0  0  0  0  0  0  0
    3.2939   -0.8682   -5.9857 H   0  0  0  0  0  0  0  0  0  0  0  0
    2.6199   -2.2835   -5.1680 H   0  0  0  0  0  0  0  0  0  0  0  0
    2.9726    3.3400   -4.3626 H   0  0  0  0  0  0  0  0  0  0  0  0
    3.4787    2.1378   -5.5553 H   0  0  0  0  0  0  0  0  0  0  0  0
    5.6915    2.6026   -0.4355 H   0  0  0  0  0  0  0  0  0  0  0  0
    6.7529    1.2377   -0.8015 H   0  0  0  0  0  0  0  0  0  0  0  0
    6.5632   -1.7444   -1.2317 H   0  0  0  0  0  0  0  0  0  0  0  0
    5.3343   -3.0147   -1.2410 H   0  0  0  0  0  0  0  0  0  0  0  0
   -5.4591   -2.2637   -2.0226 H   0  0  0  0  0  0  0  0  0  0  0  0
   -6.4946   -0.8383   -2.1632 H   0  0  0  0  0  0  0  0  0  0  0  0
   -6.3187    2.1623   -1.7185 H   0  0  0  0  0  0  0  0  0  0  0  0
   -5.1296    3.3563   -1.1841 H   0  0  0  0  0  0  0  0  0  0  0  0
   -4.7711   -3.0037    2.7028 H   0  0  0  0  0  0  0  0  0  0  0  0
   -5.6609   -1.7324    3.5487 H   0  0  0  0  0  0  0  0  0  0  0  0
   -5.5034    1.2443    3.9964 H   0  0  0  0  0  0  0  0  0  0  0  0
   -4.4758    2.6102    3.5466 H   0  0  0  0  0  0  0  0  0  0  0  0
    1.3324   -1.0381    6.6577 H   0  0  0  0  0  0  0  0  0  0  0  0
    3.5374   -1.0328    5.8064 H   0  0  0  0  0  0  0  0  0  0  0  0
   -0.4505    0.5639    6.8517 H   0  0  0  0  0  0  0  0  0  0  0  0
   -0.2870    2.0378    5.8899 H   0  0  0  0  0  0  0  0  0  0  0  0
   -0.6006   -3.5861    5.0737 H   0  0  0  0  0  0  0  0  0  0  0  0
   -0.6211   -2.4385    6.4182 H   0  0  0  0  0  0  0  0  0  0  0  0
   -0.1317    0.1308   -1.5313 C   0  0  0  0  0  0  0  0  0  0  0  0
   -0.5647   -1.0226   -1.0076 C   0  0  0  0  0  0  0  0  0  0  0  0
   -0.5724   -1.4058    0.2749 C   0  0  0  0  0  0  0  0  0  0  0  0
   -0.1491   -0.7305    1.3504 C   0  0  0  0  0  0  0  0  0  0  0  0
    0.3864    0.4948    1.4091 C   0  0  0  0  0  3  0  0  0  0  0  0
    0.6310    1.3476    0.4066 C   0  0  0  0  0  0  0  0  0  0  0  0
    0.4004    1.1856   -0.9020 C   0  0  0  0  0  0  0  0  0  0  0  0
   -0.2249    0.2234   -2.6150 H   0  0  0  0  0  0  0  0  0  0  0  0
   -0.9641   -1.7459   -1.7205 H   0  0  0  0  0  0  0  0  0  0  0  0
   -0.9774   -2.4006    0.4694 H   0  0  0  0  0  0  0  0  0  0  0  0
   -0.2547   -1.2474    2.3059 H   0  0  0  0  0  0  0  0  0  0  0  0
    0.6599    0.8450    2.4060 H   0  0  0  0  0  0  0  0  0  0  0  0
    1.0775    2.3012    0.6943 H   0  0  0  0  0  0  0  0  0  0  0  0
    0.6838    2.0245   -1.5402 H   0  0  0  0  0  0  0  0  0  0  0  0
  1  5  1  0
  1 65  1  0
  2  1  1  0
  2  6  1  0
  2  3  1  0
  2 85  1  6
  3  4  1  0
  3  8  1  0
  3 86  1  6
  4  5  1  0
  5  9  2  0
  6 66  1  0
  6  7  1  0
  7 10  2  0
  8 52  1  0
  8  7  1  0
 11 15  1  0
 12 11  1  0
 12 16  1  0
 12 13  1  0
 12 87  1  6
 13 14  1  0
 13 18  1  0
 13 88  1  6
 14 69  1  0
 15 19  2  0
 15 14  1  0
 16 17  1  0
 17 18  1  0
 17 20  2  0
 18 70  1  0
 21 25  1  0
 22 21  1  0
 22 23  1  0
 22 89  1  1
 23 24  1  0
 23 28  1  0
 23 90  1  1
 24 51  1  0
 25 24  1  0
 26 22  1  0
 26 27  1  0
 27 28  1  0
 28 53  1  0
 29 25  2  0
 30 27  2  0
 31 84  1  0
 32 31  1  0
 32 33  1  0
 32 91  1  1
 33 34  1  0
 33 92  1  1
 34 35  1  0
 35 31  1  0
 36 32  1  0
 36 83  1  0
 37 36  1  0
 38 37  1  0
 38 33  1  0
 39 35  2  0
 40 37  2  0
 41 45  1  0
 42 41  1  0
 42 43  1  0
 42 93  1  1
 43 44  1  0
 43 48  1  0
 43 94  1  1
 44 71  1  0
 45 44  1  0
 46 42  1  0
 46 47  1  0
 47 50  2  0
 47 48  1  0
 48 72  1  0
 49 45  2  0
 51 80  1  0
 51 95  1  0
 51 96  1  0
 52 16  1  0
 52 97  1  0
 52 98  1  0
 53 76  1  0
 53 99  1  0
 53100  1  0
 54  4  1  0
 54 11  1  0
 54101  1  0
 54102  1  0
 55 59  1  0
 56 55  1  0
 56 60  1  0
 56 57  1  0
 56103  1  6
 57 58  1  0
 57 62  1  0
 57104  1  6
 58 68  1  0
 59 63  2  0
 59 58  1  0
 60 61  1  0
 61 64  2  0
 61 62  1  0
 62 67  1  0
 65 55  1  0
 65105  1  0
 65106  1  0
 66 60  1  0
 66107  1  0
 66108  1  0
 67 26  1  0
 67109  1  0
 67110  1  0
 68 21  1  0
 68111  1  0
 68112  1  0
 69 41  1  0
 69113  1  0
 69114  1  0
 70 46  1  0
 70115  1  0
 70116  1  0
 71 34  1  0
 71117  1  0
 71118  1  0
 72 38  1  0
 72119  1  0
 72120  1  0
 73 74  1  0
 73 83  1  0
 74 78  1  0
 74 75  1  0
 74121  1  1
 75 80  1  0
 75122  1  1
 76 77  1  0
 76 75  1  0
 77 73  1  0
 78 84  1  0
 79 78  1  0
 80 79  1  0
 81 77  2  0
 82 79  2  0
 83123  1  0
 83124  1  0
 84125  1  0
 84126  1  0
127128  2  0
128129  1  0
129130  2  0
130131  1  0
131132  1  0
132133  2  0
133127  1  0
127134  1  0
128135  1  0
129136  1  0
130137  1  0
131138  1  0
132139  1  0
133140  1  0
M  CHG  1 131   1
M  END
>  <0_score>  (3) 
-1554.3397726930152

>  <1_score>  (3) 
-1554.339772690159

>  <2_score>  (3) 
-1554.3397726893772

>  <3_score>  (3) 
-1554.3397726881096

>  <4_score>  (3) 
-1554.3397726873966

>  <5_score>  (3) 
-1554.3397726873825

>  <6_score>  (3) 
-1554.3397726858843

>  <7_score>  (3) 
-1554.3397726841263

>  <8_score>  (3) 
-1554.3397726837743

>  <9_score>  (3) 
-1554.3397726836852

>  <10_score>  (3) 
-1554.3397726836067

>  <11_score>  (3) 
-1554.3397726835856

>  <12_score>  (3) 
-1554.3397726828998

>  <13_score>  (3) 
-1554.3397726825483

>  <14_score>  (3) 
-1554.3397726817623

>  <15_score>  (3) 
-1554.3397726817191

>  <16_score>  (3) 
-1554.3397726811709

>  <17_score>  (3) 
-1554.3397726794165

$$$$

     RDKit          3D

140161  0  0  1  0  0  0  0  0999 V2000
    1.4443   -0.5664   -5.0838 N   0  0  0  0  0  0  0  0  0  0  0  0
    1.2353    0.7501   -5.6182 C   0  0  1  0  0  0  0  0  0  0  0  0
   -0.3168    0.8652   -5.7366 C   0  0  1  0  0  0  0  0  0  0  0  0
   -0.7945   -0.4021   -5.2605 N   0  0  0  0  0  0  0  0  0  0  0  0
    0.2758   -1.2989   -5.3118 C   0  0  0  0  0  0  0  0  0  0  0  0
    1.5955    1.8208   -4.7318 N   0  0  0  0  0  0  0  0  0  0  0  0
    0.5260    2.7198   -4.7033 C   0  0  0  0  0  0  0  0  0  0  0  0
   -0.6450    1.9829   -4.8974 N   0  0  0  0  0  0  0  0  0  0  0  0
    0.2242   -2.4448   -5.7257 O   0  0  0  0  0  0  0  0  0  0  0  0
    0.6167    3.9356   -4.7490 O   0  0  0  0  0  0  0  0  0  0  0  0
   -2.9941   -0.3970   -4.4008 N   0  0  0  0  0  0  0  0  0  0  0  0
   -3.6617    0.8737   -4.4277 C   0  0  1  0  0  0  0  0  0  0  0  0
   -4.7221    0.7655   -3.2880 C   0  0  1  0  0  0  0  0  0  0  0  0
   -4.5221   -0.5526   -2.7541 N   0  0  0  0  0  0  0  0  0  0  0  0
   -3.8152   -1.2893   -3.7078 C   0  0  0  0  0  0  0  0  0  0  0  0
   -2.8450    1.9871   -4.0352 N   0  0  0  0  0  0  0  0  0  0  0  0
   -3.5670    2.7273   -3.0959 C   0  0  0  0  0  0  0  0  0  0  0  0
   -4.3785    1.8333   -2.3917 N   0  0  0  0  0  0  0  0  0  0  0  0
   -4.0506   -2.4406   -4.0354 O   0  0  0  0  0  0  0  0  0  0  0  0
   -3.6540    3.9440   -3.0640 O   0  0  0  0  0  0  0  0  0  0  0  0
    5.0953   -1.5568    0.2285 N   0  0  0  0  0  0  0  0  0  0  0  0
    5.7248   -0.4712    0.9263 C   0  0  2  0  0  0  0  0  0  0  0  0
    5.2569   -0.6522    2.4036 C   0  0  2  0  0  0  0  0  0  0  0  0
    4.4250   -1.8218    2.3625 N   0  0  0  0  0  0  0  0  0  0  0  0
    4.7178   -2.5065    1.1807 C   0  0  0  0  0  0  0  0  0  0  0  0
    5.2406    0.8316    0.5665 N   0  0  0  0  0  0  0  0  0  0  0  0
    4.9492    1.5163    1.7487 C   0  0  0  0  0  0  0  0  0  0  0  0
    4.5592    0.5681    2.6974 N   0  0  0  0  0  0  0  0  0  0  0  0
    4.8511   -3.7147    1.0723 O   0  0  0  0  0  0  0  0  0  0  0  0
    5.2142    2.6853    1.9779 O   0  0  0  0  0  0  0  0  0  0  0  0
   -1.6438   -1.8185    4.7166 N   0  0  0  0  0  0  0  0  0  0  0  0
   -2.2252   -0.6521    5.3197 C   0  0  2  0  0  0  0  0  0  0  0  0
   -3.5748   -0.4671    4.5588 C   0  0  2  0  0  0  0  0  0  0  0  0
   -3.5910   -1.5491    3.6154 N   0  0  0  0  0  0  0  0  0  0  0  0
   -2.6671   -2.5017    4.0529 C   0  0  0  0  0  0  0  0  0  0  0  0
   -1.5152    0.5700    5.0664 N   0  0  0  0  0  0  0  0  0  0  0  0
   -2.4489    1.5195    4.6446 C   0  0  0  0  0  0  0  0  0  0  0  0
   -3.4643    0.8379    3.9707 N   0  0  0  0  0  0  0  0  0  0  0  0
   -2.8438   -3.7090    4.0690 O   0  0  0  0  0  0  0  0  0  0  0  0
   -2.4912    2.6847    5.0046 O   0  0  0  0  0  0  0  0  0  0  0  0
   -5.2245   -0.8427   -0.5165 N   0  0  0  0  0  0  0  0  0  0  0  0
   -5.7970    0.3196    0.1026 C   0  0  1  0  0  0  0  0  0  0  0  0
   -5.5808    0.0784    1.6289 C   0  0  1  0  0  0  0  0  0  0  0  0
   -4.9091   -1.1890    1.6874 N   0  0  0  0  0  0  0  0  0  0  0  0
   -5.1149   -1.8321    0.4645 C   0  0  0  0  0  0  0  0  0  0  0  0
   -5.0932    1.5443   -0.1571 N   0  0  0  0  0  0  0  0  0  0  0  0
   -4.9054    2.1881    1.0688 C   0  0  0  0  0  0  0  0  0  0  0  0
   -4.7847    1.1977    2.0462 N   0  0  0  0  0  0  0  0  0  0  0  0
   -5.3871   -3.0126    0.3183 O   0  0  0  0  0  0  0  0  0  0  0  0
   -5.0642    3.3792    1.2785 O   0  0  0  0  0  0  0  0  0  0  0  0
    4.0368   -2.5203    3.5589 C   0  0  0  0  0  0  0  0  0  0  0  0
   -1.9337    2.6211   -4.9506 C   0  0  0  0  0  0  0  0  0  0  0  0
    4.2229    0.9470    4.0442 C   0  0  0  0  0  0  0  0  0  0  0  0
   -2.1488   -0.8355   -5.4792 C   0  0  0  0  0  0  0  0  0  0  0  0
    3.4780   -0.8589   -3.9137 N   0  0  0  0  0  0  0  0  0  0  0  0
    4.3222    0.3009   -3.8541 C   0  0  2  0  0  0  0  0  0  0  0  0
    5.1999    0.0636   -2.5859 C   0  0  2  0  0  0  0  0  0  0  0  0
    4.7449   -1.2013   -2.0820 N   0  0  0  0  0  0  0  0  0  0  0  0
    4.0667   -1.8469   -3.1190 C   0  0  0  0  0  0  0  0  0  0  0  0
    3.6338    1.5294   -3.5732 N   0  0  0  0  0  0  0  0  0  0  0  0
    4.3288    2.1749   -2.5478 C   0  0  0  0  0  0  0  0  0  0  0  0
    4.9003    1.1867   -1.7433 N   0  0  0  0  0  0  0  0  0  0  0  0
    4.1755   -3.0259   -3.4139 O   0  0  0  0  0  0  0  0  0  0  0  0
    4.5905    3.3658   -2.5056 O   0  0  0  0  0  0  0  0  0  0  0  0
    2.7376   -1.1975   -5.1006 C   0  0  0  0  0  0  0  0  0  0  0  0
    2.9556    2.2723   -4.6017 C   0  0  0  0  0  0  0  0  0  0  0  0
    5.7127    1.5214   -0.6045 C   0  0  0  0  0  0  0  0  0  0  0  0
    5.4932   -1.9412   -1.1000 C   0  0  0  0  0  0  0  0  0  0  0  0
   -5.4889   -1.1775   -1.8909 C   0  0  0  0  0  0  0  0  0  0  0  0
   -5.2866    2.2896   -1.3726 C   0  0  0  0  0  0  0  0  0  0  0  0
   -4.7888   -1.9302    2.9152 C   0  0  0  0  0  0  0  0  0  0  0  0
   -4.6066    1.5293    3.4346 C   0  0  0  0  0  0  0  0  0  0  0  0
    0.8369    0.4134    5.2257 N   0  0  0  0  0  0  0  0  0  0  0  0
    1.3432   -0.8848    5.5717 C   0  0  2  0  0  0  0  0  0  0  0  0
    2.7987   -0.8838    5.0096 C   0  0  2  0  0  0  0  0  0  0  0  0
    2.9375    0.4135    4.4097 N   0  0  0  0  0  0  0  0  0  0  0  0
    1.9336    1.2299    4.9367 C   0  0  0  0  0  0  0  0  0  0  0  0
    0.7087   -1.9769    4.8878 N   0  0  0  0  0  0  0  0  0  0  0  0
    1.7208   -2.7976    4.3828 C   0  0  0  0  0  0  0  0  0  0  0  0
    2.8105   -1.9777    4.0795 N   0  0  0  0  0  0  0  0  0  0  0  0
    2.0741    2.3871    5.2978 O   0  0  0  0  0  0  0  0  0  0  0  0
    1.7401   -4.0161    4.4324 O   0  0  0  0  0  0  0  0  0  0  0  0
   -0.3553    0.9472    5.8295 C   0  0  0  0  0  0  0  0  0  0  0  0
   -0.5479   -2.5228    5.3279 C   0  0  0  0  0  0  0  0  0  0  0  0
    1.7222    0.8631   -6.5945 H   0  0  0  0  0  0  0  0  0  0  0  0
   -0.6294    1.0423   -6.7729 H   0  0  0  0  0  0  0  0  0  0  0  0
   -4.1343    1.0525   -5.4014 H   0  0  0  0  0  0  0  0  0  0  0  0
   -5.7413    0.8856   -3.6750 H   0  0  0  0  0  0  0  0  0  0  0  0
    6.8169   -0.5255    0.8408 H   0  0  0  0  0  0  0  0  0  0  0  0
    6.1080   -0.7943    3.0808 H   0  0  0  0  0  0  0  0  0  0  0  0
   -2.3868   -0.8006    6.3943 H   0  0  0  0  0  0  0  0  0  0  0  0
   -4.4321   -0.5230    5.2407 H   0  0  0  0  0  0  0  0  0  0  0  0
   -6.8618    0.4153   -0.1425 H   0  0  0  0  0  0  0  0  0  0  0  0
   -6.5344    0.0465    2.1700 H   0  0  0  0  0  0  0  0  0  0  0  0
    4.8276   -2.4242    4.3117 H   0  0  0  0  0  0  0  0  0  0  0  0
    3.9115   -3.5865    3.3450 H   0  0  0  0  0  0  0  0  0  0  0  0
   -2.3328    2.5543   -5.9691 H   0  0  0  0  0  0  0  0  0  0  0  0
   -1.8345    3.6828   -4.7030 H   0  0  0  0  0  0  0  0  0  0  0  0
    4.2131    2.0381    4.1333 H   0  0  0  0  0  0  0  0  0  0  0  0
    4.9858    0.5657    4.7324 H   0  0  0  0  0  0  0  0  0  0  0  0
   -2.1832   -1.9266   -5.5608 H   0  0  0  0  0  0  0  0  0  0  0  0
   -2.5171   -0.4205   -6.4243 H   0  0  0  0  0  0  0  0  0  0  0  0
    4.9379    0.3904   -4.7577 H   0  0  0  0  0  0  0  0  0  0  0  0
    6.2673    0.0301   -2.8363 H   0  0  0  0  0  0  0  0  0  0  0  0
    3.2939   -0.8682   -5.9857 H   0  0  0  0  0  0  0  0  0  0  0  0
    2.6199   -2.2835   -5.1680 H   0  0  0  0  0  0  0  0  0  0  0  0
    2.9726    3.3400   -4.3626 H   0  0  0  0  0  0  0  0  0  0  0  0
    3.4787    2.1378   -5.5553 H   0  0  0  0  0  0  0  0  0  0  0  0
    5.6915    2.6026   -0.4355 H   0  0  0  0  0  0  0  0  0  0  0  0
    6.7529    1.2377   -0.8015 H   0  0  0  0  0  0  0  0  0  0  0  0
    6.5632   -1.7444   -1.2317 H   0  0  0  0  0  0  0  0  0  0  0  0
    5.3343   -3.0147   -1.2410 H   0  0  0  0  0  0  0  0  0  0  0  0
   -5.4591   -2.2637   -2.0226 H   0  0  0  0  0  0  0  0  0  0  0  0
   -6.4946   -0.8383   -2.1632 H   0  0  0  0  0  0  0  0  0  0  0  0
   -6.3187    2.1623   -1.7185 H   0  0  0  0  0  0  0  0  0  0  0  0
   -5.1296    3.3563   -1.1841 H   0  0  0  0  0  0  0  0  0  0  0  0
   -4.7711   -3.0037    2.7028 H   0  0  0  0  0  0  0  0  0  0  0  0
   -5.6609   -1.7324    3.5487 H   0  0  0  0  0  0  0  0  0  0  0  0
   -5.5034    1.2443    3.9964 H   0  0  0  0  0  0  0  0  0  0  0  0
   -4.4758    2.6102    3.5466 H   0  0  0  0  0  0  0  0  0  0  0  0
    1.3324   -1.0381    6.6577 H   0  0  0  0  0  0  0  0  0  0  0  0
    3.5374   -1.0328    5.8064 H   0  0  0  0  0  0  0  0  0  0  0  0
   -0.4505    0.5639    6.8517 H   0  0  0  0  0  0  0  0  0  0  0  0
   -0.2870    2.0378    5.8899 H   0  0  0  0  0  0  0  0  0  0  0  0
   -0.6006   -3.5861    5.0737 H   0  0  0  0  0  0  0  0  0  0  0  0
   -0.6211   -2.4385    6.4182 H   0  0  0  0  0  0  0  0  0  0  0  0
   -0.1317    1.4641   -1.5313 C   0  0  0  0  0  0  0  0  0  0  0  0
   -0.5647    0.3108   -1.0076 C   0  0  0  0  0  0  0  0  0  0  0  0
   -0.5724   -0.0725    0.2749 C   0  0  0  0  0  0  0  0  0  0  0  0
   -0.1491    0.6028    1.3504 C   0  0  0  0  0  0  0  0  0  0  0  0
    0.3864    1.8282    1.4091 C   0  0  0  0  0  3  0  0  0  0  0  0
    0.6310    2.6809    0.4066 C   0  0  0  0  0  0  0  0  0  0  0  0
    0.4004    2.5190   -0.9020 C   0  0  0  0  0  0  0  0  0  0  0  0
   -0.2249    1.5567   -2.6150 H   0  0  0  0  0  0  0  0  0  0  0  0
   -0.9641   -0.4126   -1.7205 H   0  0  0  0  0  0  0  0  0  0  0  0
   -0.9774   -1.0672    0.4694 H   0  0  0  0  0  0  0  0  0  0  0  0
   -0.2547    0.0859    2.3059 H   0  0  0  0  0  0  0  0  0  0  0  0
    0.6599    2.1783    2.4060 H   0  0  0  0  0  0  0  0  0  0  0  0
    1.0775    3.6345    0.6943 H   0  0  0  0  0  0  0  0  0  0  0  0
    0.6838    3.3579   -1.5402 H   0  0  0  0  0  0  0  0  0  0  0  0
  1  5  1  0
  1 65  1  0
  2  1  1  0
  2  6  1  0
  2  3  1  0
  2 85  1  6
  3  4  1  0
  3  8  1  0
  3 86  1  6
  4  5  1  0
  5  9  2  0
  6 66  1  0
  6  7  1  0
  7 10  2  0
  8 52  1  0
  8  7  1  0
 11 15  1  0
 12 11  1  0
 12 16  1  0
 12 13  1  0
 12 87  1  6
 13 14  1  0
 13 18  1  0
 13 88  1  6
 14 69  1  0
 15 19  2  0
 15 14  1  0
 16 17  1  0
 17 18  1  0
 17 20  2  0
 18 70  1  0
 21 25  1  0
 22 21  1  0
 22 23  1  0
 22 89  1  1
 23 24  1  0
 23 28  1  0
 23 90  1  1
 24 51  1  0
 25 24  1  0
 26 22  1  0
 26 27  1  0
 27 28  1  0
 28 53  1  0
 29 25  2  0
 30 27  2  0
 31 84  1  0
 32 31  1  0
 32 33  1  0
 32 91  1  1
 33 34  1  0
 33 92  1  1
 34 35  1  0
 35 31  1  0
 36 32  1  0
 36 83  1  0
 37 36  1  0
 38 37  1  0
 38 33  1  0
 39 35  2  0
 40 37  2  0
 41 45  1  0
 42 41  1  0
 42 43  1  0
 42 93  1  1
 43 44  1  0
 43 48  1  0
 43 94  1  1
 44 71  1  0
 45 44  1  0
 46 42  1  0
 46 47  1  0
 47 50  2  0
 47 48  1  0
 48 72  1  0
 49 45  2  0
 51 80  1  0
 51 95  1  0
 51 96  1  0
 52 16  1  0
 52 97  1  0
 52 98  1  0
 53 76  1  0
 53 99  1  0
 53100  1  0
 54  4  1  0
 54 11  1  0
 54101  1  0
 54102  1  0
 55 59  1  0
 56 55  1  0
 56 60  1  0
 56 57  1  0
 56103  1  6
 57 58  1  0
 57 62  1  0
 57104  1  6
 58 68  1  0
 59 63  2  0
 59 58  1  0
 60 61  1  0
 61 64  2  0
 61 62  1  0
 62 67  1  0
 65 55  1  0
 65105  1  0
 65106  1  0
 66 60  1  0
 66107  1  0
 66108  1  0
 67 26  1  0
 67109  1  0
 67110  1  0
 68 21  1  0
 68111  1  0
 68112  1  0
 69 41  1  0
 69113  1  0
 69114  1  0
 70 46  1  0
 70115  1  0
 70116  1  0
 71 34  1  0
 71117  1  0
 71118  1  0
 72 38  1  0
 72119  1  0
 72120  1  0
 73 74  1  0
 73 83  1  0
 74 78  1  0
 74 75  1  0
 74121  1  1
 75 80  1  0
 75122  1  1
 76 77  1  0
 76 75  1  0
 77 73  1  0
 78 84  1  0
 79 78  1  0
 80 79  1  0
 81 77  2  0
 82 79  2  0
 83123  1  0
 83124  1  0
 84125  1  0
 84126  1  0
127128  2  0
128129  1  0
129130  2  0
130131  1  0
131132  1  0
132133  2  0
133127  1  0
127134  1  0
128135  1  0
129136  1  0
130137  1  0
131138  1  0
132139  1  0
133140  1  0
M  CHG  1 131   1
M  END
>  <0_score>  (4) 
-1554.3397726930152

>  <1_score>  (4) 
-1554.339772690159

>  <2_score>  (4) 
-1554.3397726893772

>  <3_score>  (4) 
-1554.3397726881096

>  <4_score>  (4) 
-1554.3397726873966

>  <5_score>  (4) 
-1554.3397726873825

>  <6_score>  (4) 
-1554.3397726858843

>  <7_score>  (4) 
-1554.3397726841263

>  <8_score>  (4) 
-1554.3397726837743

>  <9_score>  (4) 
-1554.3397726836852

>  <10_score>  (4) 
-1554.3397726836067

>  <11_score>  (4) 
-1554.3397726835856

>  <12_score>  (4) 
-1554.3397726828998

>  <13_score>  (4) 
-1554.3397726825483

>  <14_score>  (4) 
-1554.3397726817623

>  <15_score>  (4) 
-1554.3397726817191

>  <16_score>  (4) 
-1554.3397726811709

>  <17_score>  (4) 
-1554.3397726794165

$$$$

     RDKit          3D

140161  0  0  1  0  0  0  0  0999 V2000
    1.4443   -0.5664   -5.0838 N   0  0  0  0  0  0  0  0  0  0  0  0
    1.2353    0.7501   -5.6182 C   0  0  1  0  0  0  0  0  0  0  0  0
   -0.3168    0.8652   -5.7366 C   0  0  1  0  0  0  0  0  0  0  0  0
   -0.7945   -0.4021   -5.2605 N   0  0  0  0  0  0  0  0  0  0  0  0
    0.2758   -1.2989   -5.3118 C   0  0  0  0  0  0  0  0  0  0  0  0
    1.5955    1.8208   -4.7318 N   0  0  0  0  0  0  0  0  0  0  0  0
    0.5260    2.7198   -4.7033 C   0  0  0  0  0  0  0  0  0  0  0  0
   -0.6450    1.9829   -4.8974 N   0  0  0  0  0  0  0  0  0  0  0  0
    0.2242   -2.4448   -5.7257 O   0  0  0  0  0  0  0  0  0  0  0  0
    0.6167    3.9356   -4.7490 O   0  0  0  0  0  0  0  0  0  0  0  0
   -2.9941   -0.3970   -4.4008 N   0  0  0  0  0  0  0  0  0  0  0  0
   -3.6617    0.8737   -4.4277 C   0  0  1  0  0  0  0  0  0  0  0  0
   -4.7221    0.7655   -3.2880 C   0  0  1  0  0  0  0  0  0  0  0  0
   -4.5221   -0.5526   -2.7541 N   0  0  0  0  0  0  0  0  0  0  0  0
   -3.8152   -1.2893   -3.7078 C   0  0  0  0  0  0  0  0  0  0  0  0
   -2.8450    1.9871   -4.0352 N   0  0  0  0  0  0  0  0  0  0  0  0
   -3.5670    2.7273   -3.0959 C   0  0  0  0  0  0  0  0  0  0  0  0
   -4.3785    1.8333   -2.3917 N   0  0  0  0  0  0  0  0  0  0  0  0
   -4.0506   -2.4406   -4.0354 O   0  0  0  0  0  0  0  0  0  0  0  0
   -3.6540    3.9440   -3.0640 O   0  0  0  0  0  0  0  0  0  0  0  0
    5.0953   -1.5568    0.2285 N   0  0  0  0  0  0  0  0  0  0  0  0
    5.7248   -0.4712    0.9263 C   0  0  2  0  0  0  0  0  0  0  0  0
    5.2569   -0.6522    2.4036 C   0  0  2  0  0  0  0  0  0  0  0  0
    4.4250   -1.8218    2.3625 N   0  0  0  0  0  0  0  0  0  0  0  0
    4.7178   -2.5065    1.1807 C   0  0  0  0  0  0  0  0  0  0  0  0
    5.2406    0.8316    0.5665 N   0  0  0  0  0  0  0  0  0  0  0  0
    4.9492    1.5163    1.7487 C   0  0  0  0  0  0  0  0  0  0  0  0
    4.5592    0.5681    2.6974 N   0  0  0  0  0  0  0  0  0  0  0  0
    4.8511   -3.7147    1.0723 O   0  0  0  0  0  0  0  0  0  0  0  0
    5.2142    2.6853    1.9779 O   0  0  0  0  0  0  0  0  0  0  0  0
   -1.6438   -1.8185    4.7166 N   0  0  0  0  0  0  0  0  0  0  0  0
   -2.2252   -0.6521    5.3197 C   0  0  2  0  0  0  0  0  0  0  0  0
   -3.5748   -0.4671    4.5588 C   0  0  2  0  0  0  0  0  0  0  0  0
   -3.5910   -1.5491    3.6154 N   0  0  0  0  0  0  0  0  0  0  0  0
   -2.6671   -2.5017    4.0529 C   0  0  0  0  0  0  0  0  0  0  0  0
   -1.5152    0.5700    5.0664 N   0  0  0  0  0  0  0  0  0  0  0  0
   -2.4489    1.5195    4.6446 C   0  0  0  0  0  0  0  0  0  0  0  0
   -3.4643    0.8379    3.9707 N   0  0  0  0  0  0  0  0  0  0  0  0
   -2.8438   -3.7090    4.0690 O   0  0  0  0  0  0  0  0  0  0  0  0
   -2.4912    2.6847    5.0046 O   0  0  0  0  0  0  0  0  0  0  0  0
   -5.2245   -0.8427   -0.5165 N   0  0  0  0  0  0  0  0  0  0  0  0
   -5.7970    0.3196    0.1026 C   0  0  1  0  0  0  0  0  0  0  0  0
   -5.5808    0.0784    1.6289 C   0  0  1  0  0  0  0  0  0  0  0  0
   -4.9091   -1.1890    1.6874 N   0  0  0  0  0  0  0  0  0  0  0  0
   -5.1149   -1.8321    0.4645 C   0  0  0  0  0  0  0  0  0  0  0  0
   -5.0932    1.5443   -0.1571 N   0  0  0  0  0  0  0  0  0  0  0  0
   -4.9054    2.1881    1.0688 C   0  0  0  0  0  0  0  0  0  0  0  0
   -4.7847    1.1977    2.0462 N   0  0  0  0  0  0  0  0  0  0  0  0
   -5.3871   -3.0126    0.3183 O   0  0  0  0  0  0  0  0  0  0  0  0
   -5.0642    3.3792    1.2785 O   0  0  0  0  0  0  0  0  0  0  0  0
    4.0368   -2.5203    3.5589 C   0  0  0  0  0  0  0  0  0  0  0  0
   -1.9337    2.6211   -4.9506 C   0  0  0  0  0  0  0  0  0  0  0  0
    4.2229    0.9470    4.0442 C   0  0  0  0  0  0  0  0  0  0  0  0
   -2.1488   -0.8355   -5.4792 C   0  0  0  0  0  0  0  0  0  0  0  0
    3.4780   -0.8589   -3.9137 N   0  0  0  0  0  0  0  0  0  0  0  0
    4.3222    0.3009   -3.8541 C   0  0  2  0  0  0  0  0  0  0  0  0
    5.1999    0.0636   -2.5859 C   0  0  2  0  0  0  0  0  0  0  0  0
    4.7449   -1.2013   -2.0820 N   0  0  0  0  0  0  0  0  0  0  0  0
    4.0667   -1.8469   -3.1190 C   0  0  0  0  0  0  0  0  0  0  0  0
    3.6338    1.5294   -3.5732 N   0  0  0  0  0  0  0  0  0  0  0  0
    4.3288    2.1749   -2.5478 C   0  0  0  0  0  0  0  0  0  0  0  0
    4.9003    1.1867   -1.7433 N   0  0  0  0  0  0  0  0  0  0  0  0
    4.1755   -3.0259   -3.4139 O   0  0  0  0  0  0  0  0  0  0  0  0
    4.5905    3.3658   -2.5056 O   0  0  0  0  0  0  0  0  0  0  0  0
    2.7376   -1.1975   -5.1006 C   0  0  0  0  0  0  0  0  0  0  0  0
    2.9556    2.2723   -4.6017 C   0  0  0  0  0  0  0  0  0  0  0  0
    5.7127    1.5214   -0.6045 C   0  0  0  0  0  0  0  0  0  0  0  0
    5.4932   -1.9412   -1.1000 C   0  0  0  0  0  0  0  0  0  0  0  0
   -5.4889   -1.1775   -1.8909 C   0  0  0  0  0  0  0  0  0  0  0  0
   -5.2866    2.2896   -1.3726 C   0  0  0  0  0  0  0  0  0  0  0  0
   -4.7888   -1.9302    2.9152 C   0  0  0  0  0  0  0  0  0  0  0  0
   -4.6066    1.5293    3.4346 C   0  0  0  0  0  0  0  0  0  0  0  0
    0.8369    0.4134    5.2257 N   0  0  0  0  0  0  0  0  0  0  0  0
    1.3432   -0.8848    5.5717 C   0  0  2  0  0  0  0  0  0  0  0  0
    2.7987   -0.8838    5.0096 C   0  0  2  0  0  0  0  0  0  0  0  0
    2.9375    0.4135    4.4097 N   0  0  0  0  0  0  0  0  0  0  0  0
    1.9336    1.2299    4.9367 C   0  0  0  0  0  0  0  0  0  0  0  0
    0.7087   -1.9769    4.8878 N   0  0  0  0  0  0  0  0  0  0  0  0
    1.7208   -2.7976    4.3828 C   0  0  0  0  0  0  0  0  0  0  0  0
    2.8105   -1.9777    4.0795 N   0  0  0  0  0  0  0  0  0  0  0  0
    2.0741    2.3871    5.2978 O   0  0  0  0  0  0  0  0  0  0  0  0
    1.7401   -4.0161    4.4324 O   0  0  0  0  0  0  0  0  0  0  0  0
   -0.3553    0.9472    5.8295 C   0  0  0  0  0  0  0  0  0  0  0  0
   -0.5479   -2.5228    5.3279 C   0  0  0  0  0  0  0  0  0  0  0  0
    1.7222    0.8631   -6.5945 H   0  0  0  0  0  0  0  0  0  0  0  0
   -0.6294    1.0423   -6.7729 H   0  0  0  0  0  0  0  0  0  0  0  0
   -4.1343    1.0525   -5.4014 H   0  0  0  0  0  0  0  0  0  0  0  0
   -5.7413    0.8856   -3.6750 H   0  0  0  0  0  0  0  0  0  0  0  0
    6.8169   -0.5255    0.8408 H   0  0  0  0  0  0  0  0  0  0  0  0
    6.1080   -0.7943    3.0808 H   0  0  0  0  0  0  0  0  0  0  0  0
   -2.3868   -0.8006    6.3943 H   0  0  0  0  0  0  0  0  0  0  0  0
   -4.4321   -0.5230    5.2407 H   0  0  0  0  0  0  0  0  0  0  0  0
   -6.8618    0.4153   -0.1425 H   0  0  0  0  0  0  0  0  0  0  0  0
   -6.5344    0.0465    2.1700 H   0  0  0  0  0  0  0  0  0  0  0  0
    4.8276   -2.4242    4.3117 H   0  0  0  0  0  0  0  0  0  0  0  0
    3.9115   -3.5865    3.3450 H   0  0  0  0  0  0  0  0  0  0  0  0
   -2.3328    2.5543   -5.9691 H   0  0  0  0  0  0  0  0  0  0  0  0
   -1.8345    3.6828   -4.7030 H   0  0  0  0  0  0  0  0  0  0  0  0
    4.2131    2.0381    4.1333 H   0  0  0  0  0  0  0  0  0  0  0  0
    4.9858    0.5657    4.7324 H   0  0  0  0  0  0  0  0  0  0  0  0
   -2.1832   -1.9266   -5.5608 H   0  0  0  0  0  0  0  0  0  0  0  0
   -2.5171   -0.4205   -6.4243 H   0  0  0  0  0  0  0  0  0  0  0  0
    4.9379    0.3904   -4.7577 H   0  0  0  0  0  0  0  0  0  0  0  0
    6.2673    0.0301   -2.8363 H   0  0  0  0  0  0  0  0  0  0  0  0
    3.2939   -0.8682   -5.9857 H   0  0  0  0  0  0  0  0  0  0  0  0
    2.6199   -2.2835   -5.1680 H   0  0  0  0  0  0  0  0  0  0  0  0
    2.9726    3.3400   -4.3626 H   0  0  0  0  0  0  0  0  0  0  0  0
    3.4787    2.1378   -5.5553 H   0  0  0  0  0  0  0  0  0  0  0  0
    5.6915    2.6026   -0.4355 H   0  0  0  0  0  0  0  0  0  0  0  0
    6.7529    1.2377   -0.8015 H   0  0  0  0  0  0  0  0  0  0  0  0
    6.5632   -1.7444   -1.2317 H   0  0  0  0  0  0  0  0  0  0  0  0
    5.3343   -3.0147   -1.2410 H   0  0  0  0  0  0  0  0  0  0  0  0
   -5.4591   -2.2637   -2.0226 H   0  0  0  0  0  0  0  0  0  0  0  0
   -6.4946   -0.8383   -2.1632 H   0  0  0  0  0  0  0  0  0  0  0  0
   -6.3187    2.1623   -1.7185 H   0  0  0  0  0  0  0  0  0  0  0  0
   -5.1296    3.3563   -1.1841 H   0  0  0  0  0  0  0  0  0  0  0  0
   -4.7711   -3.0037    2.7028 H   0  0  0  0  0  0  0  0  0  0  0  0
   -5.6609   -1.7324    3.5487 H   0  0  0  0  0  0  0  0  0  0  0  0
   -5.5034    1.2443    3.9964 H   0  0  0  0  0  0  0  0  0  0  0  0
   -4.4758    2.6102    3.5466 H   0  0  0  0  0  0  0  0  0  0  0  0
    1.3324   -1.0381    6.6577 H   0  0  0  0  0  0  0  0  0  0  0  0
    3.5374   -1.0328    5.8064 H   0  0  0  0  0  0  0  0  0  0  0  0
   -0.4505    0.5639    6.8517 H   0  0  0  0  0  0  0  0  0  0  0  0
   -0.2870    2.0378    5.8899 H   0  0  0  0  0  0  0  0  0  0  0  0
   -0.6006   -3.5861    5.0737 H   0  0  0  0  0  0  0  0  0  0  0  0
   -0.6211   -2.4385    6.4182 H   0  0  0  0  0  0  0  0  0  0  0  0
   -0.0709    1.5384   -0.0889 C   0  0  0  0  0  0  0  0  0  0  0  0
   -1.2480    0.9011   -0.1011 C   0  0  0  0  0  0  0  0  0  0  0  0
   -1.4853   -0.4147   -0.0371 C   0  0  0  0  0  0  0  0  0  0  0  0
   -0.6043   -1.4182    0.0548 C   0  0  0  0  0  0  0  0  0  0  0  0
    0.7318   -1.3539    0.1055 C   0  0  0  0  0  3  0  0  0  0  0  0
    1.5168   -0.2700    0.0767 C   0  0  0  0  0  0  0  0  0  0  0  0
    1.1597    1.0172   -0.0098 C   0  0  0  0  0  0  0  0  0  0  0  0
   -0.1209    2.6270   -0.1519 H   0  0  0  0  0  0  0  0  0  0  0  0
   -2.1309    1.5387   -0.1726 H   0  0  0  0  0  0  0  0  0  0  0  0
   -2.5363   -0.7081   -0.0633 H   0  0  0  0  0  0  0  0  0  0  0  0
   -1.0318   -2.4218    0.0936 H   0  0  0  0  0  0  0  0  0  0  0  0
    1.2497   -2.3117    0.1801 H   0  0  0  0  0  0  0  0  0  0  0  0
    2.5901   -0.4609    0.1309 H   0  0  0  0  0  0  0  0  0  0  0  0
    1.9802    1.7370   -0.0168 H   0  0  0  0  0  0  0  0  0  0  0  0
  1  5  1  0
  1 65  1  0
  2  1  1  0
  2  6  1  0
  2  3  1  0
  2 85  1  6
  3  4  1  0
  3  8  1  0
  3 86  1  6
  4  5  1  0
  5  9  2  0
  6 66  1  0
  6  7  1  0
  7 10  2  0
  8 52  1  0
  8  7  1  0
 11 15  1  0
 12 11  1  0
 12 16  1  0
 12 13  1  0
 12 87  1  6
 13 14  1  0
 13 18  1  0
 13 88  1  6
 14 69  1  0
 15 19  2  0
 15 14  1  0
 16 17  1  0
 17 18  1  0
 17 20  2  0
 18 70  1  0
 21 25  1  0
 22 21  1  0
 22 23  1  0
 22 89  1  1
 23 24  1  0
 23 28  1  0
 23 90  1  1
 24 51  1  0
 25 24  1  0
 26 22  1  0
 26 27  1  0
 27 28  1  0
 28 53  1  0
 29 25  2  0
 30 27  2  0
 31 84  1  0
 32 31  1  0
 32 33  1  0
 32 91  1  1
 33 34  1  0
 33 92  1  1
 34 35  1  0
 35 31  1  0
 36 32  1  0
 36 83  1  0
 37 36  1  0
 38 37  1  0
 38 33  1  0
 39 35  2  0
 40 37  2  0
 41 45  1  0
 42 41  1  0
 42 43  1  0
 42 93  1  1
 43 44  1  0
 43 48  1  0
 43 94  1  1
 44 71  1  0
 45 44  1  0
 46 42  1  0
 46 47  1  0
 47 50  2  0
 47 48  1  0
 48 72  1  0
 49 45  2  0
 51 80  1  0
 51 95  1  0
 51 96  1  0
 52 16  1  0
 52 97  1  0
 52 98  1  0
 53 76  1  0
 53 99  1  0
 53100  1  0
 54  4  1  0
 54 11  1  0
 54101  1  0
 54102  1  0
 55 59  1  0
 56 55  1  0
 56 60  1  0
 56 57  1  0
 56103  1  6
 57 58  1  0
 57 62  1  0
 57104  1  6
 58 68  1  0
 59 63  2  0
 59 58  1  0
 60 61  1  0
 61 64  2  0
 61 62  1  0
 62 67  1  0
 65 55  1  0
 65105  1  0
 65106  1  0
 66 60  1  0
 66107  1  0
 66108  1  0
 67 26  1  0
 67109  1  0
 67110  1  0
 68 21  1  0
 68111  1  0
 68112  1  0
 69 41  1  0
 69113  1  0
 69114  1  0
 70 46  1  0
 70115  1  0
 70116  1  0
 71 34  1  0
 71117  1  0
 71118  1  0
 72 38  1  0
 72119  1  0
 72120  1  0
 73 74  1  0
 73 83  1  0
 74 78  1  0
 74 75  1  0
 74121  1  1
 75 80  1  0
 75122  1  1
 76 77  1  0
 76 75  1  0
 77 73  1  0
 78 84  1  0
 79 78  1  0
 80 79  1  0
 81 77  2  0
 82 79  2  0
 83123  1  0
 83124  1  0
 84125  1  0
 84126  1  0
127128  2  0
128129  1  0
129130  2  0
130131  1  0
131132  1  0
132133  2  0
133127  1  0
127134  1  0
128135  1  0
129136  1  0
130137  1  0
131138  1  0
132139  1  0
133140  1  0
M  CHG  1 131   1
M  END
>  <0_score>  (5) 
-1554.3397726930152

>  <1_score>  (5) 
-1554.339772690159

>  <2_score>  (5) 
-1554.3397726893772

>  <3_score>  (5) 
-1554.3397726881096

>  <4_score>  (5) 
-1554.3397726873966

>  <5_score>  (5) 
-1554.3397726873825

>  <6_score>  (5) 
-1554.3397726858843

>  <7_score>  (5) 
-1554.3397726841263

>  <8_score>  (5) 
-1554.3397726837743

>  <9_score>  (5) 
-1554.3397726836852

>  <10_score>  (5) 
-1554.3397726836067

>  <11_score>  (5) 
-1554.3397726835856

>  <12_score>  (5) 
-1554.3397726828998

>  <13_score>  (5) 
-1554.3397726825483

>  <14_score>  (5) 
-1554.3397726817623

>  <15_score>  (5) 
-1554.3397726817191

>  <16_score>  (5) 
-1554.3397726811709

>  <17_score>  (5) 
-1554.3397726794165

$$$$

     RDKit          3D

140161  0  0  1  0  0  0  0  0999 V2000
    1.4443   -0.5664   -5.0838 N   0  0  0  0  0  0  0  0  0  0  0  0
    1.2353    0.7501   -5.6182 C   0  0  1  0  0  0  0  0  0  0  0  0
   -0.3168    0.8652   -5.7366 C   0  0  1  0  0  0  0  0  0  0  0  0
   -0.7945   -0.4021   -5.2605 N   0  0  0  0  0  0  0  0  0  0  0  0
    0.2758   -1.2989   -5.3118 C   0  0  0  0  0  0  0  0  0  0  0  0
    1.5955    1.8208   -4.7318 N   0  0  0  0  0  0  0  0  0  0  0  0
    0.5260    2.7198   -4.7033 C   0  0  0  0  0  0  0  0  0  0  0  0
   -0.6450    1.9829   -4.8974 N   0  0  0  0  0  0  0  0  0  0  0  0
    0.2242   -2.4448   -5.7257 O   0  0  0  0  0  0  0  0  0  0  0  0
    0.6167    3.9356   -4.7490 O   0  0  0  0  0  0  0  0  0  0  0  0
   -2.9941   -0.3970   -4.4008 N   0  0  0  0  0  0  0  0  0  0  0  0
   -3.6617    0.8737   -4.4277 C   0  0  1  0  0  0  0  0  0  0  0  0
   -4.7221    0.7655   -3.2880 C   0  0  1  0  0  0  0  0  0  0  0  0
   -4.5221   -0.5526   -2.7541 N   0  0  0  0  0  0  0  0  0  0  0  0
   -3.8152   -1.2893   -3.7078 C   0  0  0  0  0  0  0  0  0  0  0  0
   -2.8450    1.9871   -4.0352 N   0  0  0  0  0  0  0  0  0  0  0  0
   -3.5670    2.7273   -3.0959 C   0  0  0  0  0  0  0  0  0  0  0  0
   -4.3785    1.8333   -2.3917 N   0  0  0  0  0  0  0  0  0  0  0  0
   -4.0506   -2.4406   -4.0354 O   0  0  0  0  0  0  0  0  0  0  0  0
   -3.6540    3.9440   -3.0640 O   0  0  0  0  0  0  0  0  0  0  0  0
    5.0953   -1.5568    0.2285 N   0  0  0  0  0  0  0  0  0  0  0  0
    5.7248   -0.4712    0.9263 C   0  0  2  0  0  0  0  0  0  0  0  0
    5.2569   -0.6522    2.4036 C   0  0  2  0  0  0  0  0  0  0  0  0
    4.4250   -1.8218    2.3625 N   0  0  0  0  0  0  0  0  0  0  0  0
    4.7178   -2.5065    1.1807 C   0  0  0  0  0  0  0  0  0  0  0  0
    5.2406    0.8316    0.5665 N   0  0  0  0  0  0  0  0  0  0  0  0
    4.9492    1.5163    1.7487 C   0  0  0  0  0  0  0  0  0  0  0  0
    4.5592    0.5681    2.6974 N   0  0  0  0  0  0  0  0  0  0  0  0
    4.8511   -3.7147    1.0723 O   0  0  0  0  0  0  0  0  0  0  0  0
    5.2142    2.6853    1.9779 O   0  0  0  0  0  0  0  0  0  0  0  0
   -1.6438   -1.8185    4.7166 N   0  0  0  0  0  0  0  0  0  0  0  0
   -2.2252   -0.6521    5.3197 C   0  0  2  0  0  0  0  0  0  0  0  0
   -3.5748   -0.4671    4.5588 C   0  0  2  0  0  0  0  0  0  0  0  0
   -3.5910   -1.5491    3.6154 N   0  0  0  0  0  0  0  0  0  0  0  0
   -2.6671   -2.5017    4.0529 C   0  0  0  0  0  0  0  0  0  0  0  0
   -1.5152    0.5700    5.0664 N   0  0  0  0  0  0  0  0  0  0  0  0
   -2.4489    1.5195    4.6446 C   0  0  0  0  0  0  0  0  0  0  0  0
   -3.4643    0.8379    3.9707 N   0  0  0  0  0  0  0  0  0  0  0  0
   -2.8438   -3.7090    4.0690 O   0  0  0  0  0  0  0  0  0  0  0  0
   -2.4912    2.6847    5.0046 O   0  0  0  0  0  0  0  0  0  0  0  0
   -5.2245   -0.8427   -0.5165 N   0  0  0  0  0  0  0  0  0  0  0  0
   -5.7970    0.3196    0.1026 C   0  0  1  0  0  0  0  0  0  0  0  0
   -5.5808    0.0784    1.6289 C   0  0  1  0  0  0  0  0  0  0  0  0
   -4.9091   -1.1890    1.6874 N   0  0  0  0  0  0  0  0  0  0  0  0
   -5.1149   -1.8321    0.4645 C   0  0  0  0  0  0  0  0  0  0  0  0
   -5.0932    1.5443   -0.1571 N   0  0  0  0  0  0  0  0  0  0  0  0
   -4.9054    2.1881    1.0688 C   0  0  0  0  0  0  0  0  0  0  0  0
   -4.7847    1.1977    2.0462 N   0  0  0  0  0  0  0  0  0  0  0  0
   -5.3871   -3.0126    0.3183 O   0  0  0  0  0  0  0  0  0  0  0  0
   -5.0642    3.3792    1.2785 O   0  0  0  0  0  0  0  0  0  0  0  0
    4.0368   -2.5203    3.5589 C   0  0  0  0  0  0  0  0  0  0  0  0
   -1.9337    2.6211   -4.9506 C   0  0  0  0  0  0  0  0  0  0  0  0
    4.2229    0.9470    4.0442 C   0  0  0  0  0  0  0  0  0  0  0  0
   -2.1488   -0.8355   -5.4792 C   0  0  0  0  0  0  0  0  0  0  0  0
    3.4780   -0.8589   -3.9137 N   0  0  0  0  0  0  0  0  0  0  0  0
    4.3222    0.3009   -3.8541 C   0  0  2  0  0  0  0  0  0  0  0  0
    5.1999    0.0636   -2.5859 C   0  0  2  0  0  0  0  0  0  0  0  0
    4.7449   -1.2013   -2.0820 N   0  0  0  0  0  0  0  0  0  0  0  0
    4.0667   -1.8469   -3.1190 C   0  0  0  0  0  0  0  0  0  0  0  0
    3.6338    1.5294   -3.5732 N   0  0  0  0  0  0  0  0  0  0  0  0
    4.3288    2.1749   -2.5478 C   0  0  0  0  0  0  0  0  0  0  0  0
    4.9003    1.1867   -1.7433 N   0  0  0  0  0  0  0  0  0  0  0  0
    4.1755   -3.0259   -3.4139 O   0  0  0  0  0  0  0  0  0  0  0  0
    4.5905    3.3658   -2.5056 O   0  0  0  0  0  0  0  0  0  0  0  0
    2.7376   -1.1975   -5.1006 C   0  0  0  0  0  0  0  0  0  0  0  0
    2.9556    2.2723   -4.6017 C   0  0  0  0  0  0  0  0  0  0  0  0
    5.7127    1.5214   -0.6045 C   0  0  0  0  0  0  0  0  0  0  0  0
    5.4932   -1.9412   -1.1000 C   0  0  0  0  0  0  0  0  0  0  0  0
   -5.4889   -1.1775   -1.8909 C   0  0  0  0  0  0  0  0  0  0  0  0
   -5.2866    2.2896   -1.3726 C   0  0  0  0  0  0  0  0  0  0  0  0
   -4.7888   -1.9302    2.9152 C   0  0  0  0  0  0  0  0  0  0  0  0
   -4.6066    1.5293    3.4346 C   0  0  0  0  0  0  0  0  0  0  0  0
    0.8369    0.4134    5.2257 N   0  0  0  0  0  0  0  0  0  0  0  0
    1.3432   -0.8848    5.5717 C   0  0  2  0  0  0  0  0  0  0  0  0
    2.7987   -0.8838    5.0096 C   0  0  2  0  0  0  0  0  0  0  0  0
    2.9375    0.4135    4.4097 N   0  0  0  0  0  0  0  0  0  0  0  0
    1.9336    1.2299    4.9367 C   0  0  0  0  0  0  0  0  0  0  0  0
    0.7087   -1.9769    4.8878 N   0  0  0  0  0  0  0  0  0  0  0  0
    1.7208   -2.7976    4.3828 C   0  0  0  0  0  0  0  0  0  0  0  0
    2.8105   -1.9777    4.0795 N   0  0  0  0  0  0  0  0  0  0  0  0
    2.0741    2.3871    5.2978 O   0  0  0  0  0  0  0  0  0  0  0  0
    1.7401   -4.0161    4.4324 O   0  0  0  0  0  0  0  0  0  0  0  0
   -0.3553    0.9472    5.8295 C   0  0  0  0  0  0  0  0  0  0  0  0
   -0.5479   -2.5228    5.3279 C   0  0  0  0  0  0  0  0  0  0  0  0
    1.7222    0.8631   -6.5945 H   0  0  0  0  0  0  0  0  0  0  0  0
   -0.6294    1.0423   -6.7729 H   0  0  0  0  0  0  0  0  0  0  0  0
   -4.1343    1.0525   -5.4014 H   0  0  0  0  0  0  0  0  0  0  0  0
   -5.7413    0.8856   -3.6750 H   0  0  0  0  0  0  0  0  0  0  0  0
    6.8169   -0.5255    0.8408 H   0  0  0  0  0  0  0  0  0  0  0  0
    6.1080   -0.7943    3.0808 H   0  0  0  0  0  0  0  0  0  0  0  0
   -2.3868   -0.8006    6.3943 H   0  0  0  0  0  0  0  0  0  0  0  0
   -4.4321   -0.5230    5.2407 H   0  0  0  0  0  0  0  0  0  0  0  0
   -6.8618    0.4153   -0.1425 H   0  0  0  0  0  0  0  0  0  0  0  0
   -6.5344    0.0465    2.1700 H   0  0  0  0  0  0  0  0  0  0  0  0
    4.8276   -2.4242    4.3117 H   0  0  0  0  0  0  0  0  0  0  0  0
    3.9115   -3.5865    3.3450 H   0  0  0  0  0  0  0  0  0  0  0  0
   -2.3328    2.5543   -5.9691 H   0  0  0  0  0  0  0  0  0  0  0  0
   -1.8345    3.6828   -4.7030 H   0  0  0  0  0  0  0  0  0  0  0  0
    4.2131    2.0381    4.1333 H   0  0  0  0  0  0  0  0  0  0  0  0
    4.9858    0.5657    4.7324 H   0  0  0  0  0  0  0  0  0  0  0  0
   -2.1832   -1.9266   -5.5608 H   0  0  0  0  0  0  0  0  0  0  0  0
   -2.5171   -0.4205   -6.4243 H   0  0  0  0  0  0  0  0  0  0  0  0
    4.9379    0.3904   -4.7577 H   0  0  0  0  0  0  0  0  0  0  0  0
    6.2673    0.0301   -2.8363 H   0  0  0  0  0  0  0  0  0  0  0  0
    3.2939   -0.8682   -5.9857 H   0  0  0  0  0  0  0  0  0  0  0  0
    2.6199   -2.2835   -5.1680 H   0  0  0  0  0  0  0  0  0  0  0  0
    2.9726    3.3400   -4.3626 H   0  0  0  0  0  0  0  0  0  0  0  0
    3.4787    2.1378   -5.5553 H   0  0  0  0  0  0  0  0  0  0  0  0
    5.6915    2.6026   -0.4355 H   0  0  0  0  0  0  0  0  0  0  0  0
    6.7529    1.2377   -0.8015 H   0  0  0  0  0  0  0  0  0  0  0  0
    6.5632   -1.7444   -1.2317 H   0  0  0  0  0  0  0  0  0  0  0  0
    5.3343   -3.0147   -1.2410 H   0  0  0  0  0  0  0  0  0  0  0  0
   -5.4591   -2.2637   -2.0226 H   0  0  0  0  0  0  0  0  0  0  0  0
   -6.4946   -0.8383   -2.1632 H   0  0  0  0  0  0  0  0  0  0  0  0
   -6.3187    2.1623   -1.7185 H   0  0  0  0  0  0  0  0  0  0  0  0
   -5.1296    3.3563   -1.1841 H   0  0  0  0  0  0  0  0  0  0  0  0
   -4.7711   -3.0037    2.7028 H   0  0  0  0  0  0  0  0  0  0  0  0
   -5.6609   -1.7324    3.5487 H   0  0  0  0  0  0  0  0  0  0  0  0
   -5.5034    1.2443    3.9964 H   0  0  0  0  0  0  0  0  0  0  0  0
   -4.4758    2.6102    3.5466 H   0  0  0  0  0  0  0  0  0  0  0  0
    1.3324   -1.0381    6.6577 H   0  0  0  0  0  0  0  0  0  0  0  0
    3.5374   -1.0328    5.8064 H   0  0  0  0  0  0  0  0  0  0  0  0
   -0.4505    0.5639    6.8517 H   0  0  0  0  0  0  0  0  0  0  0  0
   -0.2870    2.0378    5.8899 H   0  0  0  0  0  0  0  0  0  0  0  0
   -0.6006   -3.5861    5.0737 H   0  0  0  0  0  0  0  0  0  0  0  0
   -0.6211   -2.4385    6.4182 H   0  0  0  0  0  0  0  0  0  0  0  0
   -0.1317    4.1308   -1.5313 C   0  0  0  0  0  0  0  0  0  0  0  0
   -0.5647    2.9774   -1.0076 C   0  0  0  0  0  0  0  0  0  0  0  0
   -0.5724    2.5942    0.2749 C   0  0  0  0  0  0  0  0  0  0  0  0
   -0.1491    3.2695    1.3504 C   0  0  0  0  0  0  0  0  0  0  0  0
    0.3864    4.4948    1.4091 C   0  0  0  0  0  3  0  0  0  0  0  0
    0.6310    5.3476    0.4066 C   0  0  0  0  0  0  0  0  0  0  0  0
    0.4004    5.1856   -0.9020 C   0  0  0  0  0  0  0  0  0  0  0  0
   -0.2249    4.2234   -2.6150 H   0  0  0  0  0  0  0  0  0  0  0  0
   -0.9641    2.2541   -1.7205 H   0  0  0  0  0  0  0  0  0  0  0  0
   -0.9774    1.5994    0.4694 H   0  0  0  0  0  0  0  0  0  0  0  0
   -0.2547    2.7526    2.3059 H   0  0  0  0  0  0  0  0  0  0  0  0
    0.6599    4.8450    2.4060 H   0  0  0  0  0  0  0  0  0  0  0  0
    1.0775    6.3012    0.6943 H   0  0  0  0  0  0  0  0  0  0  0  0
    0.6838    6.0245   -1.5402 H   0  0  0  0  0  0  0  0  0  0  0  0
  1  5  1  0
  1 65  1  0
  2  1  1  0
  2  6  1  0
  2  3  1  0
  2 85  1  6
  3  4  1  0
  3  8  1  0
  3 86  1  6
  4  5  1  0
  5  9  2  0
  6 66  1  0
  6  7  1  0
  7 10  2  0
  8 52  1  0
  8  7  1  0
 11 15  1  0
 12 11  1  0
 12 16  1  0
 12 13  1  0
 12 87  1  6
 13 14  1  0
 13 18  1  0
 13 88  1  6
 14 69  1  0
 15 19  2  0
 15 14  1  0
 16 17  1  0
 17 18  1  0
 17 20  2  0
 18 70  1  0
 21 25  1  0
 22 21  1  0
 22 23  1  0
 22 89  1  1
 23 24  1  0
 23 28  1  0
 23 90  1  1
 24 51  1  0
 25 24  1  0
 26 22  1  0
 26 27  1  0
 27 28  1  0
 28 53  1  0
 29 25  2  0
 30 27  2  0
 31 84  1  0
 32 31  1  0
 32 33  1  0
 32 91  1  1
 33 34  1  0
 33 92  1  1
 34 35  1  0
 35 31  1  0
 36 32  1  0
 36 83  1  0
 37 36  1  0
 38 37  1  0
 38 33  1  0
 39 35  2  0
 40 37  2  0
 41 45  1  0
 42 41  1  0
 42 43  1  0
 42 93  1  1
 43 44  1  0
 43 48  1  0
 43 94  1  1
 44 71  1  0
 45 44  1  0
 46 42  1  0
 46 47  1  0
 47 50  2  0
 47 48  1  0
 48 72  1  0
 49 45  2  0
 51 80  1  0
 51 95  1  0
 51 96  1  0
 52 16  1  0
 52 97  1  0
 52 98  1  0
 53 76  1  0
 53 99  1  0
 53100  1  0
 54  4  1  0
 54 11  1  0
 54101  1  0
 54102  1  0
 55 59  1  0
 56 55  1  0
 56 60  1  0
 56 57  1  0
 56103  1  6
 57 58  1  0
 57 62  1  0
 57104  1  6
 58 68  1  0
 59 63  2  0
 59 58  1  0
 60 61  1  0
 61 64  2  0
 61 62  1  0
 62 67  1  0
 65 55  1  0
 65105  1  0
 65106  1  0
 66 60  1  0
 66107  1  0
 66108  1  0
 67 26  1  0
 67109  1  0
 67110  1  0
 68 21  1  0
 68111  1  0
 68112  1  0
 69 41  1  0
 69113  1  0
 69114  1  0
 70 46  1  0
 70115  1  0
 70116  1  0
 71 34  1  0
 71117  1  0
 71118  1  0
 72 38  1  0
 72119  1  0
 72120  1  0
 73 74  1  0
 73 83  1  0
 74 78  1  0
 74 75  1  0
 74121  1  1
 75 80  1  0
 75122  1  1
 76 77  1  0
 76 75  1  0
 77 73  1  0
 78 84  1  0
 79 78  1  0
 80 79  1  0
 81 77  2  0
 82 79  2  0
 83123  1  0
 83124  1  0
 84125  1  0
 84126  1  0
127128  2  0
128129  1  0
129130  2  0
130131  1  0
131132  1  0
132133  2  0
133127  1  0
127134  1  0
128135  1  0
129136  1  0
130137  1  0
131138  1  0
132139  1  0
133140  1  0
M  CHG  1 131   1
M  END
>  <0_score>  (6) 
-1554.3397726930152

>  <1_score>  (6) 
-1554.339772690159

>  <2_score>  (6) 
-1554.3397726893772

>  <3_score>  (6) 
-1554.3397726881096

>  <4_score>  (6) 
-1554.3397726873966

>  <5_score>  (6) 
-1554.3397726873825

>  <6_score>  (6) 
-1554.3397726858843

>  <7_score>  (6) 
-1554.3397726841263

>  <8_score>  (6) 
-1554.3397726837743

>  <9_score>  (6) 
-1554.3397726836852

>  <10_score>  (6) 
-1554.3397726836067

>  <11_score>  (6) 
-1554.3397726835856

>  <12_score>  (6) 
-1554.3397726828998

>  <13_score>  (6) 
-1554.3397726825483

>  <14_score>  (6) 
-1554.3397726817623

>  <15_score>  (6) 
-1554.3397726817191

>  <16_score>  (6) 
-1554.3397726811709

>  <17_score>  (6) 
-1554.3397726794165

$$$$

     RDKit          3D

140161  0  0  1  0  0  0  0  0999 V2000
    1.4443   -0.5664   -5.0838 N   0  0  0  0  0  0  0  0  0  0  0  0
    1.2353    0.7501   -5.6182 C   0  0  1  0  0  0  0  0  0  0  0  0
   -0.3168    0.8652   -5.7366 C   0  0  1  0  0  0  0  0  0  0  0  0
   -0.7945   -0.4021   -5.2605 N   0  0  0  0  0  0  0  0  0  0  0  0
    0.2758   -1.2989   -5.3118 C   0  0  0  0  0  0  0  0  0  0  0  0
    1.5955    1.8208   -4.7318 N   0  0  0  0  0  0  0  0  0  0  0  0
    0.5260    2.7198   -4.7033 C   0  0  0  0  0  0  0  0  0  0  0  0
   -0.6450    1.9829   -4.8974 N   0  0  0  0  0  0  0  0  0  0  0  0
    0.2242   -2.4448   -5.7257 O   0  0  0  0  0  0  0  0  0  0  0  0
    0.6167    3.9356   -4.7490 O   0  0  0  0  0  0  0  0  0  0  0  0
   -2.9941   -0.3970   -4.4008 N   0  0  0  0  0  0  0  0  0  0  0  0
   -3.6617    0.8737   -4.4277 C   0  0  1  0  0  0  0  0  0  0  0  0
   -4.7221    0.7655   -3.2880 C   0  0  1  0  0  0  0  0  0  0  0  0
   -4.5221   -0.5526   -2.7541 N   0  0  0  0  0  0  0  0  0  0  0  0
   -3.8152   -1.2893   -3.7078 C   0  0  0  0  0  0  0  0  0  0  0  0
   -2.8450    1.9871   -4.0352 N   0  0  0  0  0  0  0  0  0  0  0  0
   -3.5670    2.7273   -3.0959 C   0  0  0  0  0  0  0  0  0  0  0  0
   -4.3785    1.8333   -2.3917 N   0  0  0  0  0  0  0  0  0  0  0  0
   -4.0506   -2.4406   -4.0354 O   0  0  0  0  0  0  0  0  0  0  0  0
   -3.6540    3.9440   -3.0640 O   0  0  0  0  0  0  0  0  0  0  0  0
    5.0953   -1.5568    0.2285 N   0  0  0  0  0  0  0  0  0  0  0  0
    5.7248   -0.4712    0.9263 C   0  0  2  0  0  0  0  0  0  0  0  0
    5.2569   -0.6522    2.4036 C   0  0  2  0  0  0  0  0  0  0  0  0
    4.4250   -1.8218    2.3625 N   0  0  0  0  0  0  0  0  0  0  0  0
    4.7178   -2.5065    1.1807 C   0  0  0  0  0  0  0  0  0  0  0  0
    5.2406    0.8316    0.5665 N   0  0  0  0  0  0  0  0  0  0  0  0
    4.9492    1.5163    1.7487 C   0  0  0  0  0  0  0  0  0  0  0  0
    4.5592    0.5681    2.6974 N   0  0  0  0  0  0  0  0  0  0  0  0
    4.8511   -3.7147    1.0723 O   0  0  0  0  0  0  0  0  0  0  0  0
    5.2142    2.6853    1.9779 O   0  0  0  0  0  0  0  0  0  0  0  0
   -1.6438   -1.8185    4.7166 N   0  0  0  0  0  0  0  0  0  0  0  0
   -2.2252   -0.6521    5.3197 C   0  0  2  0  0  0  0  0  0  0  0  0
   -3.5748   -0.4671    4.5588 C   0  0  2  0  0  0  0  0  0  0  0  0
   -3.5910   -1.5491    3.6154 N   0  0  0  0  0  0  0  0  0  0  0  0
   -2.6671   -2.5017    4.0529 C   0  0  0  0  0  0  0  0  0  0  0  0
   -1.5152    0.5700    5.0664 N   0  0  0  0  0  0  0  0  0  0  0  0
   -2.4489    1.5195    4.6446 C   0  0  0  0  0  0  0  0  0  0  0  0
   -3.4643    0.8379    3.9707 N   0  0  0  0  0  0  0  0  0  0  0  0
   -2.8438   -3.7090    4.0690 O   0  0  0  0  0  0  0  0  0  0  0  0
   -2.4912    2.6847    5.0046 O   0  0  0  0  0  0  0  0  0  0  0  0
   -5.2245   -0.8427   -0.5165 N   0  0  0  0  0  0  0  0  0  0  0  0
   -5.7970    0.3196    0.1026 C   0  0  1  0  0  0  0  0  0  0  0  0
   -5.5808    0.0784    1.6289 C   0  0  1  0  0  0  0  0  0  0  0  0
   -4.9091   -1.1890    1.6874 N   0  0  0  0  0  0  0  0  0  0  0  0
   -5.1149   -1.8321    0.4645 C   0  0  0  0  0  0  0  0  0  0  0  0
   -5.0932    1.5443   -0.1571 N   0  0  0  0  0  0  0  0  0  0  0  0
   -4.9054    2.1881    1.0688 C   0  0  0  0  0  0  0  0  0  0  0  0
   -4.7847    1.1977    2.0462 N   0  0  0  0  0  0  0  0  0  0  0  0
   -5.3871   -3.0126    0.3183 O   0  0  0  0  0  0  0  0  0  0  0  0
   -5.0642    3.3792    1.2785 O   0  0  0  0  0  0  0  0  0  0  0  0
    4.0368   -2.5203    3.5589 C   0  0  0  0  0  0  0  0  0  0  0  0
   -1.9337    2.6211   -4.9506 C   0  0  0  0  0  0  0  0  0  0  0  0
    4.2229    0.9470    4.0442 C   0  0  0  0  0  0  0  0  0  0  0  0
   -2.1488   -0.8355   -5.4792 C   0  0  0  0  0  0  0  0  0  0  0  0
    3.4780   -0.8589   -3.9137 N   0  0  0  0  0  0  0  0  0  0  0  0
    4.3222    0.3009   -3.8541 C   0  0  2  0  0  0  0  0  0  0  0  0
    5.1999    0.0636   -2.5859 C   0  0  2  0  0  0  0  0  0  0  0  0
    4.7449   -1.2013   -2.0820 N   0  0  0  0  0  0  0  0  0  0  0  0
    4.0667   -1.8469   -3.1190 C   0  0  0  0  0  0  0  0  0  0  0  0
    3.6338    1.5294   -3.5732 N   0  0  0  0  0  0  0  0  0  0  0  0
    4.3288    2.1749   -2.5478 C   0  0  0  0  0  0  0  0  0  0  0  0
    4.9003    1.1867   -1.7433 N   0  0  0  0  0  0  0  0  0  0  0  0
    4.1755   -3.0259   -3.4139 O   0  0  0  0  0  0  0  0  0  0  0  0
    4.5905    3.3658   -2.5056 O   0  0  0  0  0  0  0  0  0  0  0  0
    2.7376   -1.1975   -5.1006 C   0  0  0  0  0  0  0  0  0  0  0  0
    2.9556    2.2723   -4.6017 C   0  0  0  0  0  0  0  0  0  0  0  0
    5.7127    1.5214   -0.6045 C   0  0  0  0  0  0  0  0  0  0  0  0
    5.4932   -1.9412   -1.1000 C   0  0  0  0  0  0  0  0  0  0  0  0
   -5.4889   -1.1775   -1.8909 C   0  0  0  0  0  0  0  0  0  0  0  0
   -5.2866    2.2896   -1.3726 C   0  0  0  0  0  0  0  0  0  0  0  0
   -4.7888   -1.9302    2.9152 C   0  0  0  0  0  0  0  0  0  0  0  0
   -4.6066    1.5293    3.4346 C   0  0  0  0  0  0  0  0  0  0  0  0
    0.8369    0.4134    5.2257 N   0  0  0  0  0  0  0  0  0  0  0  0
    1.3432   -0.8848    5.5717 C   0  0  2  0  0  0  0  0  0  0  0  0
    2.7987   -0.8838    5.0096 C   0  0  2  0  0  0  0  0  0  0  0  0
    2.9375    0.4135    4.4097 N   0  0  0  0  0  0  0  0  0  0  0  0
    1.9336    1.2299    4.9367 C   0  0  0  0  0  0  0  0  0  0  0  0
    0.7087   -1.9769    4.8878 N   0  0  0  0  0  0  0  0  0  0  0  0
    1.7208   -2.7976    4.3828 C   0  0  0  0  0  0  0  0  0  0  0  0
    2.8105   -1.9777    4.0795 N   0  0  0  0  0  0  0  0  0  0  0  0
    2.0741    2.3871    5.2978 O   0  0  0  0  0  0  0  0  0  0  0  0
    1.7401   -4.0161    4.4324 O   0  0  0  0  0  0  0  0  0  0  0  0
   -0.3553    0.9472    5.8295 C   0  0  0  0  0  0  0  0  0  0  0  0
   -0.5479   -2.5228    5.3279 C   0  0  0  0  0  0  0  0  0  0  0  0
    1.7222    0.8631   -6.5945 H   0  0  0  0  0  0  0  0  0  0  0  0
   -0.6294    1.0423   -6.7729 H   0  0  0  0  0  0  0  0  0  0  0  0
   -4.1343    1.0525   -5.4014 H   0  0  0  0  0  0  0  0  0  0  0  0
   -5.7413    0.8856   -3.6750 H   0  0  0  0  0  0  0  0  0  0  0  0
    6.8169   -0.5255    0.8408 H   0  0  0  0  0  0  0  0  0  0  0  0
    6.1080   -0.7943    3.0808 H   0  0  0  0  0  0  0  0  0  0  0  0
   -2.3868   -0.8006    6.3943 H   0  0  0  0  0  0  0  0  0  0  0  0
   -4.4321   -0.5230    5.2407 H   0  0  0  0  0  0  0  0  0  0  0  0
   -6.8618    0.4153   -0.1425 H   0  0  0  0  0  0  0  0  0  0  0  0
   -6.5344    0.0465    2.1700 H   0  0  0  0  0  0  0  0  0  0  0  0
    4.8276   -2.4242    4.3117 H   0  0  0  0  0  0  0  0  0  0  0  0
    3.9115   -3.5865    3.3450 H   0  0  0  0  0  0  0  0  0  0  0  0
   -2.3328    2.5543   -5.9691 H   0  0  0  0  0  0  0  0  0  0  0  0
   -1.8345    3.6828   -4.7030 H   0  0  0  0  0  0  0  0  0  0  0  0
    4.2131    2.0381    4.1333 H   0  0  0  0  0  0  0  0  0  0  0  0
    4.9858    0.5657    4.7324 H   0  0  0  0  0  0  0  0  0  0  0  0
   -2.1832   -1.9266   -5.5608 H   0  0  0  0  0  0  0  0  0  0  0  0
   -2.5171   -0.4205   -6.4243 H   0  0  0  0  0  0  0  0  0  0  0  0
    4.9379    0.3904   -4.7577 H   0  0  0  0  0  0  0  0  0  0  0  0
    6.2673    0.0301   -2.8363 H   0  0  0  0  0  0  0  0  0  0  0  0
    3.2939   -0.8682   -5.9857 H   0  0  0  0  0  0  0  0  0  0  0  0
    2.6199   -2.2835   -5.1680 H   0  0  0  0  0  0  0  0  0  0  0  0
    2.9726    3.3400   -4.3626 H   0  0  0  0  0  0  0  0  0  0  0  0
    3.4787    2.1378   -5.5553 H   0  0  0  0  0  0  0  0  0  0  0  0
    5.6915    2.6026   -0.4355 H   0  0  0  0  0  0  0  0  0  0  0  0
    6.7529    1.2377   -0.8015 H   0  0  0  0  0  0  0  0  0  0  0  0
    6.5632   -1.7444   -1.2317 H   0  0  0  0  0  0  0  0  0  0  0  0
    5.3343   -3.0147   -1.2410 H   0  0  0  0  0  0  0  0  0  0  0  0
   -5.4591   -2.2637   -2.0226 H   0  0  0  0  0  0  0  0  0  0  0  0
   -6.4946   -0.8383   -2.1632 H   0  0  0  0  0  0  0  0  0  0  0  0
   -6.3187    2.1623   -1.7185 H   0  0  0  0  0  0  0  0  0  0  0  0
   -5.1296    3.3563   -1.1841 H   0  0  0  0  0  0  0  0  0  0  0  0
   -4.7711   -3.0037    2.7028 H   0  0  0  0  0  0  0  0  0  0  0  0
   -5.6609   -1.7324    3.5487 H   0  0  0  0  0  0  0  0  0  0  0  0
   -5.5034    1.2443    3.9964 H   0  0  0  0  0  0  0  0  0  0  0  0
   -4.4758    2.6102    3.5466 H   0  0  0  0  0  0  0  0  0  0  0  0
    1.3324   -1.0381    6.6577 H   0  0  0  0  0  0  0  0  0  0  0  0
    3.5374   -1.0328    5.8064 H   0  0  0  0  0  0  0  0  0  0  0  0
   -0.4505    0.5639    6.8517 H   0  0  0  0  0  0  0  0  0  0  0  0
   -0.2870    2.0378    5.8899 H   0  0  0  0  0  0  0  0  0  0  0  0
   -0.6006   -3.5861    5.0737 H   0  0  0  0  0  0  0  0  0  0  0  0
   -0.6211   -2.4385    6.4182 H   0  0  0  0  0  0  0  0  0  0  0  0
   -0.1317    2.0754    1.4186 C   0  0  0  0  0  0  0  0  0  0  0  0
   -0.5647    3.3334    1.2714 C   0  0  0  0  0  0  0  0  0  0  0  0
   -0.5724    4.0894    0.1667 C   0  0  0  0  0  0  0  0  0  0  0  0
   -0.1491    3.7741   -1.0635 C   0  0  0  0  0  0  0  0  0  0  0  0
    0.3864    2.6249   -1.4929 C   0  0  0  0  0  3  0  0  0  0  0  0
    0.6310    1.5071   -0.7980 C   0  0  0  0  0  0  0  0  0  0  0  0
    0.4004    1.2625    0.4977 C   0  0  0  0  0  0  0  0  0  0  0  0
   -0.2249    1.6569    2.4225 H   0  0  0  0  0  0  0  0  0  0  0  0
   -0.9641    3.8051    2.1709 H   0  0  0  0  0  0  0  0  0  0  0  0
   -0.9774    5.0961    0.2846 H   0  0  0  0  0  0  0  0  0  0  0  0
   -0.2547    4.5576   -1.8160 H   0  0  0  0  0  0  0  0  0  0  0  0
    0.6599    2.5952   -2.5490 H   0  0  0  0  0  0  0  0  0  0  0  0
    1.0775    0.6866   -1.3627 H   0  0  0  0  0  0  0  0  0  0  0  0
    0.6838    0.2690    0.8498 H   0  0  0  0  0  0  0  0  0  0  0  0
  1  5  1  0
  1 65  1  0
  2  1  1  0
  2  6  1  0
  2  3  1  0
  2 85  1  6
  3  4  1  0
  3  8  1  0
  3 86  1  6
  4  5  1  0
  5  9  2  0
  6 66  1  0
  6  7  1  0
  7 10  2  0
  8 52  1  0
  8  7  1  0
 11 15  1  0
 12 11  1  0
 12 16  1  0
 12 13  1  0
 12 87  1  6
 13 14  1  0
 13 18  1  0
 13 88  1  6
 14 69  1  0
 15 19  2  0
 15 14  1  0
 16 17  1  0
 17 18  1  0
 17 20  2  0
 18 70  1  0
 21 25  1  0
 22 21  1  0
 22 23  1  0
 22 89  1  1
 23 24  1  0
 23 28  1  0
 23 90  1  1
 24 51  1  0
 25 24  1  0
 26 22  1  0
 26 27  1  0
 27 28  1  0
 28 53  1  0
 29 25  2  0
 30 27  2  0
 31 84  1  0
 32 31  1  0
 32 33  1  0
 32 91  1  1
 33 34  1  0
 33 92  1  1
 34 35  1  0
 35 31  1  0
 36 32  1  0
 36 83  1  0
 37 36  1  0
 38 37  1  0
 38 33  1  0
 39 35  2  0
 40 37  2  0
 41 45  1  0
 42 41  1  0
 42 43  1  0
 42 93  1  1
 43 44  1  0
 43 48  1  0
 43 94  1  1
 44 71  1  0
 45 44  1  0
 46 42  1  0
 46 47  1  0
 47 50  2  0
 47 48  1  0
 48 72  1  0
 49 45  2  0
 51 80  1  0
 51 95  1  0
 51 96  1  0
 52 16  1  0
 52 97  1  0
 52 98  1  0
 53 76  1  0
 53 99  1  0
 53100  1  0
 54  4  1  0
 54 11  1  0
 54101  1  0
 54102  1  0
 55 59  1  0
 56 55  1  0
 56 60  1  0
 56 57  1  0
 56103  1  6
 57 58  1  0
 57 62  1  0
 57104  1  6
 58 68  1  0
 59 63  2  0
 59 58  1  0
 60 61  1  0
 61 64  2  0
 61 62  1  0
 62 67  1  0
 65 55  1  0
 65105  1  0
 65106  1  0
 66 60  1  0
 66107  1  0
 66108  1  0
 67 26  1  0
 67109  1  0
 67110  1  0
 68 21  1  0
 68111  1  0
 68112  1  0
 69 41  1  0
 69113  1  0
 69114  1  0
 70 46  1  0
 70115  1  0
 70116  1  0
 71 34  1  0
 71117  1  0
 71118  1  0
 72 38  1  0
 72119  1  0
 72120  1  0
 73 74  1  0
 73 83  1  0
 74 78  1  0
 74 75  1  0
 74121  1  1
 75 80  1  0
 75122  1  1
 76 77  1  0
 76 75  1  0
 77 73  1  0
 78 84  1  0
 79 78  1  0
 80 79  1  0
 81 77  2  0
 82 79  2  0
 83123  1  0
 83124  1  0
 84125  1  0
 84126  1  0
127128  2  0
128129  1  0
129130  2  0
130131  1  0
131132  1  0
132133  2  0
133127  1  0
127134  1  0
128135  1  0
129136  1  0
130137  1  0
131138  1  0
132139  1  0
133140  1  0
M  CHG  1 131   1
M  END
>  <0_score>  (7) 
-1554.3397726930152

>  <1_score>  (7) 
-1554.339772690159

>  <2_score>  (7) 
-1554.3397726893772

>  <3_score>  (7) 
-1554.3397726881096

>  <4_score>  (7) 
-1554.3397726873966

>  <5_score>  (7) 
-1554.3397726873825

>  <6_score>  (7) 
-1554.3397726858843

>  <7_score>  (7) 
-1554.3397726841263

>  <8_score>  (7) 
-1554.3397726837743

>  <9_score>  (7) 
-1554.3397726836852

>  <10_score>  (7) 
-1554.3397726836067

>  <11_score>  (7) 
-1554.3397726835856

>  <12_score>  (7) 
-1554.3397726828998

>  <13_score>  (7) 
-1554.3397726825483

>  <14_score>  (7) 
-1554.3397726817623

>  <15_score>  (7) 
-1554.3397726817191

>  <16_score>  (7) 
-1554.3397726811709

>  <17_score>  (7) 
-1554.3397726794165

$$$$

     RDKit          3D

140161  0  0  1  0  0  0  0  0999 V2000
    1.4443   -0.5664   -5.0838 N   0  0  0  0  0  0  0  0  0  0  0  0
    1.2353    0.7501   -5.6182 C   0  0  1  0  0  0  0  0  0  0  0  0
   -0.3168    0.8652   -5.7366 C   0  0  1  0  0  0  0  0  0  0  0  0
   -0.7945   -0.4021   -5.2605 N   0  0  0  0  0  0  0  0  0  0  0  0
    0.2758   -1.2989   -5.3118 C   0  0  0  0  0  0  0  0  0  0  0  0
    1.5955    1.8208   -4.7318 N   0  0  0  0  0  0  0  0  0  0  0  0
    0.5260    2.7198   -4.7033 C   0  0  0  0  0  0  0  0  0  0  0  0
   -0.6450    1.9829   -4.8974 N   0  0  0  0  0  0  0  0  0  0  0  0
    0.2242   -2.4448   -5.7257 O   0  0  0  0  0  0  0  0  0  0  0  0
    0.6167    3.9356   -4.7490 O   0  0  0  0  0  0  0  0  0  0  0  0
   -2.9941   -0.3970   -4.4008 N   0  0  0  0  0  0  0  0  0  0  0  0
   -3.6617    0.8737   -4.4277 C   0  0  1  0  0  0  0  0  0  0  0  0
   -4.7221    0.7655   -3.2880 C   0  0  1  0  0  0  0  0  0  0  0  0
   -4.5221   -0.5526   -2.7541 N   0  0  0  0  0  0  0  0  0  0  0  0
   -3.8152   -1.2893   -3.7078 C   0  0  0  0  0  0  0  0  0  0  0  0
   -2.8450    1.9871   -4.0352 N   0  0  0  0  0  0  0  0  0  0  0  0
   -3.5670    2.7273   -3.0959 C   0  0  0  0  0  0  0  0  0  0  0  0
   -4.3785    1.8333   -2.3917 N   0  0  0  0  0  0  0  0  0  0  0  0
   -4.0506   -2.4406   -4.0354 O   0  0  0  0  0  0  0  0  0  0  0  0
   -3.6540    3.9440   -3.0640 O   0  0  0  0  0  0  0  0  0  0  0  0
    5.0953   -1.5568    0.2285 N   0  0  0  0  0  0  0  0  0  0  0  0
    5.7248   -0.4712    0.9263 C   0  0  2  0  0  0  0  0  0  0  0  0
    5.2569   -0.6522    2.4036 C   0  0  2  0  0  0  0  0  0  0  0  0
    4.4250   -1.8218    2.3625 N   0  0  0  0  0  0  0  0  0  0  0  0
    4.7178   -2.5065    1.1807 C   0  0  0  0  0  0  0  0  0  0  0  0
    5.2406    0.8316    0.5665 N   0  0  0  0  0  0  0  0  0  0  0  0
    4.9492    1.5163    1.7487 C   0  0  0  0  0  0  0  0  0  0  0  0
    4.5592    0.5681    2.6974 N   0  0  0  0  0  0  0  0  0  0  0  0
    4.8511   -3.7147    1.0723 O   0  0  0  0  0  0  0  0  0  0  0  0
    5.2142    2.6853    1.9779 O   0  0  0  0  0  0  0  0  0  0  0  0
   -1.6438   -1.8185    4.7166 N   0  0  0  0  0  0  0  0  0  0  0  0
   -2.2252   -0.6521    5.3197 C   0  0  2  0  0  0  0  0  0  0  0  0
   -3.5748   -0.4671    4.5588 C   0  0  2  0  0  0  0  0  0  0  0  0
   -3.5910   -1.5491    3.6154 N   0  0  0  0  0  0  0  0  0  0  0  0
   -2.6671   -2.5017    4.0529 C   0  0  0  0  0  0  0  0  0  0  0  0
   -1.5152    0.5700    5.0664 N   0  0  0  0  0  0  0  0  0  0  0  0
   -2.4489    1.5195    4.6446 C   0  0  0  0  0  0  0  0  0  0  0  0
   -3.4643    0.8379    3.9707 N   0  0  0  0  0  0  0  0  0  0  0  0
   -2.8438   -3.7090    4.0690 O   0  0  0  0  0  0  0  0  0  0  0  0
   -2.4912    2.6847    5.0046 O   0  0  0  0  0  0  0  0  0  0  0  0
   -5.2245   -0.8427   -0.5165 N   0  0  0  0  0  0  0  0  0  0  0  0
   -5.7970    0.3196    0.1026 C   0  0  1  0  0  0  0  0  0  0  0  0
   -5.5808    0.0784    1.6289 C   0  0  1  0  0  0  0  0  0  0  0  0
   -4.9091   -1.1890    1.6874 N   0  0  0  0  0  0  0  0  0  0  0  0
   -5.1149   -1.8321    0.4645 C   0  0  0  0  0  0  0  0  0  0  0  0
   -5.0932    1.5443   -0.1571 N   0  0  0  0  0  0  0  0  0  0  0  0
   -4.9054    2.1881    1.0688 C   0  0  0  0  0  0  0  0  0  0  0  0
   -4.7847    1.1977    2.0462 N   0  0  0  0  0  0  0  0  0  0  0  0
   -5.3871   -3.0126    0.3183 O   0  0  0  0  0  0  0  0  0  0  0  0
   -5.0642    3.3792    1.2785 O   0  0  0  0  0  0  0  0  0  0  0  0
    4.0368   -2.5203    3.5589 C   0  0  0  0  0  0  0  0  0  0  0  0
   -1.9337    2.6211   -4.9506 C   0  0  0  0  0  0  0  0  0  0  0  0
    4.2229    0.9470    4.0442 C   0  0  0  0  0  0  0  0  0  0  0  0
   -2.1488   -0.8355   -5.4792 C   0  0  0  0  0  0  0  0  0  0  0  0
    3.4780   -0.8589   -3.9137 N   0  0  0  0  0  0  0  0  0  0  0  0
    4.3222    0.3009   -3.8541 C   0  0  2  0  0  0  0  0  0  0  0  0
    5.1999    0.0636   -2.5859 C   0  0  2  0  0  0  0  0  0  0  0  0
    4.7449   -1.2013   -2.0820 N   0  0  0  0  0  0  0  0  0  0  0  0
    4.0667   -1.8469   -3.1190 C   0  0  0  0  0  0  0  0  0  0  0  0
    3.6338    1.5294   -3.5732 N   0  0  0  0  0  0  0  0  0  0  0  0
    4.3288    2.1749   -2.5478 C   0  0  0  0  0  0  0  0  0  0  0  0
    4.9003    1.1867   -1.7433 N   0  0  0  0  0  0  0  0  0  0  0  0
    4.1755   -3.0259   -3.4139 O   0  0  0  0  0  0  0  0  0  0  0  0
    4.5905    3.3658   -2.5056 O   0  0  0  0  0  0  0  0  0  0  0  0
    2.7376   -1.1975   -5.1006 C   0  0  0  0  0  0  0  0  0  0  0  0
    2.9556    2.2723   -4.6017 C   0  0  0  0  0  0  0  0  0  0  0  0
    5.7127    1.5214   -0.6045 C   0  0  0  0  0  0  0  0  0  0  0  0
    5.4932   -1.9412   -1.1000 C   0  0  0  0  0  0  0  0  0  0  0  0
   -5.4889   -1.1775   -1.8909 C   0  0  0  0  0  0  0  0  0  0  0  0
   -5.2866    2.2896   -1.3726 C   0  0  0  0  0  0  0  0  0  0  0  0
   -4.7888   -1.9302    2.9152 C   0  0  0  0  0  0  0  0  0  0  0  0
   -4.6066    1.5293    3.4346 C   0  0  0  0  0  0  0  0  0  0  0  0
    0.8369    0.4134    5.2257 N   0  0  0  0  0  0  0  0  0  0  0  0
    1.3432   -0.8848    5.5717 C   0  0  2  0  0  0  0  0  0  0  0  0
    2.7987   -0.8838    5.0096 C   0  0  2  0  0  0  0  0  0  0  0  0
    2.9375    0.4135    4.4097 N   0  0  0  0  0  0  0  0  0  0  0  0
    1.9336    1.2299    4.9367 C   0  0  0  0  0  0  0  0  0  0  0  0
    0.7087   -1.9769    4.8878 N   0  0  0  0  0  0  0  0  0  0  0  0
    1.7208   -2.7976    4.3828 C   0  0  0  0  0  0  0  0  0  0  0  0
    2.8105   -1.9777    4.0795 N   0  0  0  0  0  0  0  0  0  0  0  0
    2.0741    2.3871    5.2978 O   0  0  0  0  0  0  0  0  0  0  0  0
    1.7401   -4.0161    4.4324 O   0  0  0  0  0  0  0  0  0  0  0  0
   -0.3553    0.9472    5.8295 C   0  0  0  0  0  0  0  0  0  0  0  0
   -0.5479   -2.5228    5.3279 C   0  0  0  0  0  0  0  0  0  0  0  0
    1.7222    0.8631   -6.5945 H   0  0  0  0  0  0  0  0  0  0  0  0
   -0.6294    1.0423   -6.7729 H   0  0  0  0  0  0  0  0  0  0  0  0
   -4.1343    1.0525   -5.4014 H   0  0  0  0  0  0  0  0  0  0  0  0
   -5.7413    0.8856   -3.6750 H   0  0  0  0  0  0  0  0  0  0  0  0
    6.8169   -0.5255    0.8408 H   0  0  0  0  0  0  0  0  0  0  0  0
    6.1080   -0.7943    3.0808 H   0  0  0  0  0  0  0  0  0  0  0  0
   -2.3868   -0.8006    6.3943 H   0  0  0  0  0  0  0  0  0  0  0  0
   -4.4321   -0.5230    5.2407 H   0  0  0  0  0  0  0  0  0  0  0  0
   -6.8618    0.4153   -0.1425 H   0  0  0  0  0  0  0  0  0  0  0  0
   -6.5344    0.0465    2.1700 H   0  0  0  0  0  0  0  0  0  0  0  0
    4.8276   -2.4242    4.3117 H   0  0  0  0  0  0  0  0  0  0  0  0
    3.9115   -3.5865    3.3450 H   0  0  0  0  0  0  0  0  0  0  0  0
   -2.3328    2.5543   -5.9691 H   0  0  0  0  0  0  0  0  0  0  0  0
   -1.8345    3.6828   -4.7030 H   0  0  0  0  0  0  0  0  0  0  0  0
    4.2131    2.0381    4.1333 H   0  0  0  0  0  0  0  0  0  0  0  0
    4.9858    0.5657    4.7324 H   0  0  0  0  0  0  0  0  0  0  0  0
   -2.1832   -1.9266   -5.5608 H   0  0  0  0  0  0  0  0  0  0  0  0
   -2.5171   -0.4205   -6.4243 H   0  0  0  0  0  0  0  0  0  0  0  0
    4.9379    0.3904   -4.7577 H   0  0  0  0  0  0  0  0  0  0  0  0
    6.2673    0.0301   -2.8363 H   0  0  0  0  0  0  0  0  0  0  0  0
    3.2939   -0.8682   -5.9857 H   0  0  0  0  0  0  0  0  0  0  0  0
    2.6199   -2.2835   -5.1680 H   0  0  0  0  0  0  0  0  0  0  0  0
    2.9726    3.3400   -4.3626 H   0  0  0  0  0  0  0  0  0  0  0  0
    3.4787    2.1378   -5.5553 H   0  0  0  0  0  0  0  0  0  0  0  0
    5.6915    2.6026   -0.4355 H   0  0  0  0  0  0  0  0  0  0  0  0
    6.7529    1.2377   -0.8015 H   0  0  0  0  0  0  0  0  0  0  0  0
    6.5632   -1.7444   -1.2317 H   0  0  0  0  0  0  0  0  0  0  0  0
    5.3343   -3.0147   -1.2410 H   0  0  0  0  0  0  0  0  0  0  0  0
   -5.4591   -2.2637   -2.0226 H   0  0  0  0  0  0  0  0  0  0  0  0
   -6.4946   -0.8383   -2.1632 H   0  0  0  0  0  0  0  0  0  0  0  0
   -6.3187    2.1623   -1.7185 H   0  0  0  0  0  0  0  0  0  0  0  0
   -5.1296    3.3563   -1.1841 H   0  0  0  0  0  0  0  0  0  0  0  0
   -4.7711   -3.0037    2.7028 H   0  0  0  0  0  0  0  0  0  0  0  0
   -5.6609   -1.7324    3.5487 H   0  0  0  0  0  0  0  0  0  0  0  0
   -5.5034    1.2443    3.9964 H   0  0  0  0  0  0  0  0  0  0  0  0
   -4.4758    2.6102    3.5466 H   0  0  0  0  0  0  0  0  0  0  0  0
    1.3324   -1.0381    6.6577 H   0  0  0  0  0  0  0  0  0  0  0  0
    3.5374   -1.0328    5.8064 H   0  0  0  0  0  0  0  0  0  0  0  0
   -0.4505    0.5639    6.8517 H   0  0  0  0  0  0  0  0  0  0  0  0
   -0.2870    2.0378    5.8899 H   0  0  0  0  0  0  0  0  0  0  0  0
   -0.6006   -3.5861    5.0737 H   0  0  0  0  0  0  0  0  0  0  0  0
   -0.6211   -2.4385    6.4182 H   0  0  0  0  0  0  0  0  0  0  0  0
   -0.1317    0.7420    1.4186 C   0  0  0  0  0  0  0  0  0  0  0  0
   -0.5647    2.0001    1.2714 C   0  0  0  0  0  0  0  0  0  0  0  0
   -0.5724    2.7560    0.1667 C   0  0  0  0  0  0  0  0  0  0  0  0
   -0.1491    2.4407   -1.0635 C   0  0  0  0  0  0  0  0  0  0  0  0
    0.3864    1.2916   -1.4929 C   0  0  0  0  0  3  0  0  0  0  0  0
    0.6310    0.1738   -0.7980 C   0  0  0  0  0  0  0  0  0  0  0  0
    0.4004   -0.0708    0.4977 C   0  0  0  0  0  0  0  0  0  0  0  0
   -0.2249    0.3235    2.4225 H   0  0  0  0  0  0  0  0  0  0  0  0
   -0.9641    2.4718    2.1709 H   0  0  0  0  0  0  0  0  0  0  0  0
   -0.9774    3.7627    0.2846 H   0  0  0  0  0  0  0  0  0  0  0  0
   -0.2547    3.2243   -1.8160 H   0  0  0  0  0  0  0  0  0  0  0  0
    0.6599    1.2619   -2.5490 H   0  0  0  0  0  0  0  0  0  0  0  0
    1.0775   -0.6467   -1.3627 H   0  0  0  0  0  0  0  0  0  0  0  0
    0.6838   -1.0643    0.8498 H   0  0  0  0  0  0  0  0  0  0  0  0
  1  5  1  0
  1 65  1  0
  2  1  1  0
  2  6  1  0
  2  3  1  0
  2 85  1  6
  3  4  1  0
  3  8  1  0
  3 86  1  6
  4  5  1  0
  5  9  2  0
  6 66  1  0
  6  7  1  0
  7 10  2  0
  8 52  1  0
  8  7  1  0
 11 15  1  0
 12 11  1  0
 12 16  1  0
 12 13  1  0
 12 87  1  6
 13 14  1  0
 13 18  1  0
 13 88  1  6
 14 69  1  0
 15 19  2  0
 15 14  1  0
 16 17  1  0
 17 18  1  0
 17 20  2  0
 18 70  1  0
 21 25  1  0
 22 21  1  0
 22 23  1  0
 22 89  1  1
 23 24  1  0
 23 28  1  0
 23 90  1  1
 24 51  1  0
 25 24  1  0
 26 22  1  0
 26 27  1  0
 27 28  1  0
 28 53  1  0
 29 25  2  0
 30 27  2  0
 31 84  1  0
 32 31  1  0
 32 33  1  0
 32 91  1  1
 33 34  1  0
 33 92  1  1
 34 35  1  0
 35 31  1  0
 36 32  1  0
 36 83  1  0
 37 36  1  0
 38 37  1  0
 38 33  1  0
 39 35  2  0
 40 37  2  0
 41 45  1  0
 42 41  1  0
 42 43  1  0
 42 93  1  1
 43 44  1  0
 43 48  1  0
 43 94  1  1
 44 71  1  0
 45 44  1  0
 46 42  1  0
 46 47  1  0
 47 50  2  0
 47 48  1  0
 48 72  1  0
 49 45  2  0
 51 80  1  0
 51 95  1  0
 51 96  1  0
 52 16  1  0
 52 97  1  0
 52 98  1  0
 53 76  1  0
 53 99  1  0
 53100  1  0
 54  4  1  0
 54 11  1  0
 54101  1  0
 54102  1  0
 55 59  1  0
 56 55  1  0
 56 60  1  0
 56 57  1  0
 56103  1  6
 57 58  1  0
 57 62  1  0
 57104  1  6
 58 68  1  0
 59 63  2  0
 59 58  1  0
 60 61  1  0
 61 64  2  0
 61 62  1  0
 62 67  1  0
 65 55  1  0
 65105  1  0
 65106  1  0
 66 60  1  0
 66107  1  0
 66108  1  0
 67 26  1  0
 67109  1  0
 67110  1  0
 68 21  1  0
 68111  1  0
 68112  1  0
 69 41  1  0
 69113  1  0
 69114  1  0
 70 46  1  0
 70115  1  0
 70116  1  0
 71 34  1  0
 71117  1  0
 71118  1  0
 72 38  1  0
 72119  1  0
 72120  1  0
 73 74  1  0
 73 83  1  0
 74 78  1  0
 74 75  1  0
 74121  1  1
 75 80  1  0
 75122  1  1
 76 77  1  0
 76 75  1  0
 77 73  1  0
 78 84  1  0
 79 78  1  0
 80 79  1  0
 81 77  2  0
 82 79  2  0
 83123  1  0
 83124  1  0
 84125  1  0
 84126  1  0
127128  2  0
128129  1  0
129130  2  0
130131  1  0
131132  1  0
132133  2  0
133127  1  0
127134  1  0
128135  1  0
129136  1  0
130137  1  0
131138  1  0
132139  1  0
133140  1  0
M  CHG  1 131   1
M  END
>  <0_score>  (8) 
-1554.3397726930152

>  <1_score>  (8) 
-1554.339772690159

>  <2_score>  (8) 
-1554.3397726893772

>  <3_score>  (8) 
-1554.3397726881096

>  <4_score>  (8) 
-1554.3397726873966

>  <5_score>  (8) 
-1554.3397726873825

>  <6_score>  (8) 
-1554.3397726858843

>  <7_score>  (8) 
-1554.3397726841263

>  <8_score>  (8) 
-1554.3397726837743

>  <9_score>  (8) 
-1554.3397726836852

>  <10_score>  (8) 
-1554.3397726836067

>  <11_score>  (8) 
-1554.3397726835856

>  <12_score>  (8) 
-1554.3397726828998

>  <13_score>  (8) 
-1554.3397726825483

>  <14_score>  (8) 
-1554.3397726817623

>  <15_score>  (8) 
-1554.3397726817191

>  <16_score>  (8) 
-1554.3397726811709

>  <17_score>  (8) 
-1554.3397726794165

$$$$

     RDKit          3D

140161  0  0  1  0  0  0  0  0999 V2000
    1.4443   -0.5664   -5.0838 N   0  0  0  0  0  0  0  0  0  0  0  0
    1.2353    0.7501   -5.6182 C   0  0  1  0  0  0  0  0  0  0  0  0
   -0.3168    0.8652   -5.7366 C   0  0  1  0  0  0  0  0  0  0  0  0
   -0.7945   -0.4021   -5.2605 N   0  0  0  0  0  0  0  0  0  0  0  0
    0.2758   -1.2989   -5.3118 C   0  0  0  0  0  0  0  0  0  0  0  0
    1.5955    1.8208   -4.7318 N   0  0  0  0  0  0  0  0  0  0  0  0
    0.5260    2.7198   -4.7033 C   0  0  0  0  0  0  0  0  0  0  0  0
   -0.6450    1.9829   -4.8974 N   0  0  0  0  0  0  0  0  0  0  0  0
    0.2242   -2.4448   -5.7257 O   0  0  0  0  0  0  0  0  0  0  0  0
    0.6167    3.9356   -4.7490 O   0  0  0  0  0  0  0  0  0  0  0  0
   -2.9941   -0.3970   -4.4008 N   0  0  0  0  0  0  0  0  0  0  0  0
   -3.6617    0.8737   -4.4277 C   0  0  1  0  0  0  0  0  0  0  0  0
   -4.7221    0.7655   -3.2880 C   0  0  1  0  0  0  0  0  0  0  0  0
   -4.5221   -0.5526   -2.7541 N   0  0  0  0  0  0  0  0  0  0  0  0
   -3.8152   -1.2893   -3.7078 C   0  0  0  0  0  0  0  0  0  0  0  0
   -2.8450    1.9871   -4.0352 N   0  0  0  0  0  0  0  0  0  0  0  0
   -3.5670    2.7273   -3.0959 C   0  0  0  0  0  0  0  0  0  0  0  0
   -4.3785    1.8333   -2.3917 N   0  0  0  0  0  0  0  0  0  0  0  0
   -4.0506   -2.4406   -4.0354 O   0  0  0  0  0  0  0  0  0  0  0  0
   -3.6540    3.9440   -3.0640 O   0  0  0  0  0  0  0  0  0  0  0  0
    5.0953   -1.5568    0.2285 N   0  0  0  0  0  0  0  0  0  0  0  0
    5.7248   -0.4712    0.9263 C   0  0  2  0  0  0  0  0  0  0  0  0
    5.2569   -0.6522    2.4036 C   0  0  2  0  0  0  0  0  0  0  0  0
    4.4250   -1.8218    2.3625 N   0  0  0  0  0  0  0  0  0  0  0  0
    4.7178   -2.5065    1.1807 C   0  0  0  0  0  0  0  0  0  0  0  0
    5.2406    0.8316    0.5665 N   0  0  0  0  0  0  0  0  0  0  0  0
    4.9492    1.5163    1.7487 C   0  0  0  0  0  0  0  0  0  0  0  0
    4.5592    0.5681    2.6974 N   0  0  0  0  0  0  0  0  0  0  0  0
    4.8511   -3.7147    1.0723 O   0  0  0  0  0  0  0  0  0  0  0  0
    5.2142    2.6853    1.9779 O   0  0  0  0  0  0  0  0  0  0  0  0
   -1.6438   -1.8185    4.7166 N   0  0  0  0  0  0  0  0  0  0  0  0
   -2.2252   -0.6521    5.3197 C   0  0  2  0  0  0  0  0  0  0  0  0
   -3.5748   -0.4671    4.5588 C   0  0  2  0  0  0  0  0  0  0  0  0
   -3.5910   -1.5491    3.6154 N   0  0  0  0  0  0  0  0  0  0  0  0
   -2.6671   -2.5017    4.0529 C   0  0  0  0  0  0  0  0  0  0  0  0
   -1.5152    0.5700    5.0664 N   0  0  0  0  0  0  0  0  0  0  0  0
   -2.4489    1.5195    4.6446 C   0  0  0  0  0  0  0  0  0  0  0  0
   -3.4643    0.8379    3.9707 N   0  0  0  0  0  0  0  0  0  0  0  0
   -2.8438   -3.7090    4.0690 O   0  0  0  0  0  0  0  0  0  0  0  0
   -2.4912    2.6847    5.0046 O   0  0  0  0  0  0  0  0  0  0  0  0
   -5.2245   -0.8427   -0.5165 N   0  0  0  0  0  0  0  0  0  0  0  0
   -5.7970    0.3196    0.1026 C   0  0  1  0  0  0  0  0  0  0  0  0
   -5.5808    0.0784    1.6289 C   0  0  1  0  0  0  0  0  0  0  0  0
   -4.9091   -1.1890    1.6874 N   0  0  0  0  0  0  0  0  0  0  0  0
   -5.1149   -1.8321    0.4645 C   0  0  0  0  0  0  0  0  0  0  0  0
   -5.0932    1.5443   -0.1571 N   0  0  0  0  0  0  0  0  0  0  0  0
   -4.9054    2.1881    1.0688 C   0  0  0  0  0  0  0  0  0  0  0  0
   -4.7847    1.1977    2.0462 N   0  0  0  0  0  0  0  0  0  0  0  0
   -5.3871   -3.0126    0.3183 O   0  0  0  0  0  0  0  0  0  0  0  0
   -5.0642    3.3792    1.2785 O   0  0  0  0  0  0  0  0  0  0  0  0
    4.0368   -2.5203    3.5589 C   0  0  0  0  0  0  0  0  0  0  0  0
   -1.9337    2.6211   -4.9506 C   0  0  0  0  0  0  0  0  0  0  0  0
    4.2229    0.9470    4.0442 C   0  0  0  0  0  0  0  0  0  0  0  0
   -2.1488   -0.8355   -5.4792 C   0  0  0  0  0  0  0  0  0  0  0  0
    3.4780   -0.8589   -3.9137 N   0  0  0  0  0  0  0  0  0  0  0  0
    4.3222    0.3009   -3.8541 C   0  0  2  0  0  0  0  0  0  0  0  0
    5.1999    0.0636   -2.5859 C   0  0  2  0  0  0  0  0  0  0  0  0
    4.7449   -1.2013   -2.0820 N   0  0  0  0  0  0  0  0  0  0  0  0
    4.0667   -1.8469   -3.1190 C   0  0  0  0  0  0  0  0  0  0  0  0
    3.6338    1.5294   -3.5732 N   0  0  0  0  0  0  0  0  0  0  0  0
    4.3288    2.1749   -2.5478 C   0  0  0  0  0  0  0  0  0  0  0  0
    4.9003    1.1867   -1.7433 N   0  0  0  0  0  0  0  0  0  0  0  0
    4.1755   -3.0259   -3.4139 O   0  0  0  0  0  0  0  0  0  0  0  0
    4.5905    3.3658   -2.5056 O   0  0  0  0  0  0  0  0  0  0  0  0
    2.7376   -1.1975   -5.1006 C   0  0  0  0  0  0  0  0  0  0  0  0
    2.9556    2.2723   -4.6017 C   0  0  0  0  0  0  0  0  0  0  0  0
    5.7127    1.5214   -0.6045 C   0  0  0  0  0  0  0  0  0  0  0  0
    5.4932   -1.9412   -1.1000 C   0  0  0  0  0  0  0  0  0  0  0  0
   -5.4889   -1.1775   -1.8909 C   0  0  0  0  0  0  0  0  0  0  0  0
   -5.2866    2.2896   -1.3726 C   0  0  0  0  0  0  0  0  0  0  0  0
   -4.7888   -1.9302    2.9152 C   0  0  0  0  0  0  0  0  0  0  0  0
   -4.6066    1.5293    3.4346 C   0  0  0  0  0  0  0  0  0  0  0  0
    0.8369    0.4134    5.2257 N   0  0  0  0  0  0  0  0  0  0  0  0
    1.3432   -0.8848    5.5717 C   0  0  2  0  0  0  0  0  0  0  0  0
    2.7987   -0.8838    5.0096 C   0  0  2  0  0  0  0  0  0  0  0  0
    2.9375    0.4135    4.4097 N   0  0  0  0  0  0  0  0  0  0  0  0
    1.9336    1.2299    4.9367 C   0  0  0  0  0  0  0  0  0  0  0  0
    0.7087   -1.9769    4.8878 N   0  0  0  0  0  0  0  0  0  0  0  0
    1.7208   -2.7976    4.3828 C   0  0  0  0  0  0  0  0  0  0  0  0
    2.8105   -1.9777    4.0795 N   0  0  0  0  0  0  0  0  0  0  0  0
    2.0741    2.3871    5.2978 O   0  0  0  0  0  0  0  0  0  0  0  0
    1.7401   -4.0161    4.4324 O   0  0  0  0  0  0  0  0  0  0  0  0
   -0.3553    0.9472    5.8295 C   0  0  0  0  0  0  0  0  0  0  0  0
   -0.5479   -2.5228    5.3279 C   0  0  0  0  0  0  0  0  0  0  0  0
    1.7222    0.8631   -6.5945 H   0  0  0  0  0  0  0  0  0  0  0  0
   -0.6294    1.0423   -6.7729 H   0  0  0  0  0  0  0  0  0  0  0  0
   -4.1343    1.0525   -5.4014 H   0  0  0  0  0  0  0  0  0  0  0  0
   -5.7413    0.8856   -3.6750 H   0  0  0  0  0  0  0  0  0  0  0  0
    6.8169   -0.5255    0.8408 H   0  0  0  0  0  0  0  0  0  0  0  0
    6.1080   -0.7943    3.0808 H   0  0  0  0  0  0  0  0  0  0  0  0
   -2.3868   -0.8006    6.3943 H   0  0  0  0  0  0  0  0  0  0  0  0
   -4.4321   -0.5230    5.2407 H   0  0  0  0  0  0  0  0  0  0  0  0
   -6.8618    0.4153   -0.1425 H   0  0  0  0  0  0  0  0  0  0  0  0
   -6.5344    0.0465    2.1700 H   0  0  0  0  0  0  0  0  0  0  0  0
    4.8276   -2.4242    4.3117 H   0  0  0  0  0  0  0  0  0  0  0  0
    3.9115   -3.5865    3.3450 H   0  0  0  0  0  0  0  0  0  0  0  0
   -2.3328    2.5543   -5.9691 H   0  0  0  0  0  0  0  0  0  0  0  0
   -1.8345    3.6828   -4.7030 H   0  0  0  0  0  0  0  0  0  0  0  0
    4.2131    2.0381    4.1333 H   0  0  0  0  0  0  0  0  0  0  0  0
    4.9858    0.5657    4.7324 H   0  0  0  0  0  0  0  0  0  0  0  0
   -2.1832   -1.9266   -5.5608 H   0  0  0  0  0  0  0  0  0  0  0  0
   -2.5171   -0.4205   -6.4243 H   0  0  0  0  0  0  0  0  0  0  0  0
    4.9379    0.3904   -4.7577 H   0  0  0  0  0  0  0  0  0  0  0  0
    6.2673    0.0301   -2.8363 H   0  0  0  0  0  0  0  0  0  0  0  0
    3.2939   -0.8682   -5.9857 H   0  0  0  0  0  0  0  0  0  0  0  0
    2.6199   -2.2835   -5.1680 H   0  0  0  0  0  0  0  0  0  0  0  0
    2.9726    3.3400   -4.3626 H   0  0  0  0  0  0  0  0  0  0  0  0
    3.4787    2.1378   -5.5553 H   0  0  0  0  0  0  0  0  0  0  0  0
    5.6915    2.6026   -0.4355 H   0  0  0  0  0  0  0  0  0  0  0  0
    6.7529    1.2377   -0.8015 H   0  0  0  0  0  0  0  0  0  0  0  0
    6.5632   -1.7444   -1.2317 H   0  0  0  0  0  0  0  0  0  0  0  0
    5.3343   -3.0147   -1.2410 H   0  0  0  0  0  0  0  0  0  0  0  0
   -5.4591   -2.2637   -2.0226 H   0  0  0  0  0  0  0  0  0  0  0  0
   -6.4946   -0.8383   -2.1632 H   0  0  0  0  0  0  0  0  0  0  0  0
   -6.3187    2.1623   -1.7185 H   0  0  0  0  0  0  0  0  0  0  0  0
   -5.1296    3.3563   -1.1841 H   0  0  0  0  0  0  0  0  0  0  0  0
   -4.7711   -3.0037    2.7028 H   0  0  0  0  0  0  0  0  0  0  0  0
   -5.6609   -1.7324    3.5487 H   0  0  0  0  0  0  0  0  0  0  0  0
   -5.5034    1.2443    3.9964 H   0  0  0  0  0  0  0  0  0  0  0  0
   -4.4758    2.6102    3.5466 H   0  0  0  0  0  0  0  0  0  0  0  0
    1.3324   -1.0381    6.6577 H   0  0  0  0  0  0  0  0  0  0  0  0
    3.5374   -1.0328    5.8064 H   0  0  0  0  0  0  0  0  0  0  0  0
   -0.4505    0.5639    6.8517 H   0  0  0  0  0  0  0  0  0  0  0  0
   -0.2870    2.0378    5.8899 H   0  0  0  0  0  0  0  0  0  0  0  0
   -0.6006   -3.5861    5.0737 H   0  0  0  0  0  0  0  0  0  0  0  0
   -0.6211   -2.4385    6.4182 H   0  0  0  0  0  0  0  0  0  0  0  0
   -0.1317   -0.5913    1.4186 C   0  0  0  0  0  0  0  0  0  0  0  0
   -0.5647    0.6668    1.2714 C   0  0  0  0  0  0  0  0  0  0  0  0
   -0.5724    1.4227    0.1667 C   0  0  0  0  0  0  0  0  0  0  0  0
   -0.1491    1.1074   -1.0635 C   0  0  0  0  0  0  0  0  0  0  0  0
    0.3864   -0.0418   -1.4929 C   0  0  0  0  0  3  0  0  0  0  0  0
    0.6310   -1.1595   -0.7980 C   0  0  0  0  0  0  0  0  0  0  0  0
    0.4004   -1.4041    0.4977 C   0  0  0  0  0  0  0  0  0  0  0  0
   -0.2249   -1.0098    2.4225 H   0  0  0  0  0  0  0  0  0  0  0  0
   -0.9641    1.1384    2.1709 H   0  0  0  0  0  0  0  0  0  0  0  0
   -0.9774    2.4294    0.2846 H   0  0  0  0  0  0  0  0  0  0  0  0
   -0.2547    1.8910   -1.8160 H   0  0  0  0  0  0  0  0  0  0  0  0
    0.6599   -0.0714   -2.5490 H   0  0  0  0  0  0  0  0  0  0  0  0
    1.0775   -1.9800   -1.3627 H   0  0  0  0  0  0  0  0  0  0  0  0
    0.6838   -2.3977    0.8498 H   0  0  0  0  0  0  0  0  0  0  0  0
  1  5  1  0
  1 65  1  0
  2  1  1  0
  2  6  1  0
  2  3  1  0
  2 85  1  6
  3  4  1  0
  3  8  1  0
  3 86  1  6
  4  5  1  0
  5  9  2  0
  6 66  1  0
  6  7  1  0
  7 10  2  0
  8 52  1  0
  8  7  1  0
 11 15  1  0
 12 11  1  0
 12 16  1  0
 12 13  1  0
 12 87  1  6
 13 14  1  0
 13 18  1  0
 13 88  1  6
 14 69  1  0
 15 19  2  0
 15 14  1  0
 16 17  1  0
 17 18  1  0
 17 20  2  0
 18 70  1  0
 21 25  1  0
 22 21  1  0
 22 23  1  0
 22 89  1  1
 23 24  1  0
 23 28  1  0
 23 90  1  1
 24 51  1  0
 25 24  1  0
 26 22  1  0
 26 27  1  0
 27 28  1  0
 28 53  1  0
 29 25  2  0
 30 27  2  0
 31 84  1  0
 32 31  1  0
 32 33  1  0
 32 91  1  1
 33 34  1  0
 33 92  1  1
 34 35  1  0
 35 31  1  0
 36 32  1  0
 36 83  1  0
 37 36  1  0
 38 37  1  0
 38 33  1  0
 39 35  2  0
 40 37  2  0
 41 45  1  0
 42 41  1  0
 42 43  1  0
 42 93  1  1
 43 44  1  0
 43 48  1  0
 43 94  1  1
 44 71  1  0
 45 44  1  0
 46 42  1  0
 46 47  1  0
 47 50  2  0
 47 48  1  0
 48 72  1  0
 49 45  2  0
 51 80  1  0
 51 95  1  0
 51 96  1  0
 52 16  1  0
 52 97  1  0
 52 98  1  0
 53 76  1  0
 53 99  1  0
 53100  1  0
 54  4  1  0
 54 11  1  0
 54101  1  0
 54102  1  0
 55 59  1  0
 56 55  1  0
 56 60  1  0
 56 57  1  0
 56103  1  6
 57 58  1  0
 57 62  1  0
 57104  1  6
 58 68  1  0
 59 63  2  0
 59 58  1  0
 60 61  1  0
 61 64  2  0
 61 62  1  0
 62 67  1  0
 65 55  1  0
 65105  1  0
 65106  1  0
 66 60  1  0
 66107  1  0
 66108  1  0
 67 26  1  0
 67109  1  0
 67110  1  0
 68 21  1  0
 68111  1  0
 68112  1  0
 69 41  1  0
 69113  1  0
 69114  1  0
 70 46  1  0
 70115  1  0
 70116  1  0
 71 34  1  0
 71117  1  0
 71118  1  0
 72 38  1  0
 72119  1  0
 72120  1  0
 73 74  1  0
 73 83  1  0
 74 78  1  0
 74 75  1  0
 74121  1  1
 75 80  1  0
 75122  1  1
 76 77  1  0
 76 75  1  0
 77 73  1  0
 78 84  1  0
 79 78  1  0
 80 79  1  0
 81 77  2  0
 82 79  2  0
 83123  1  0
 83124  1  0
 84125  1  0
 84126  1  0
127128  2  0
128129  1  0
129130  2  0
130131  1  0
131132  1  0
132133  2  0
133127  1  0
127134  1  0
128135  1  0
129136  1  0
130137  1  0
131138  1  0
132139  1  0
133140  1  0
M  CHG  1 131   1
M  END
>  <0_score>  (9) 
-1554.3397726930152

>  <1_score>  (9) 
-1554.339772690159

>  <2_score>  (9) 
-1554.3397726893772

>  <3_score>  (9) 
-1554.3397726881096

>  <4_score>  (9) 
-1554.3397726873966

>  <5_score>  (9) 
-1554.3397726873825

>  <6_score>  (9) 
-1554.3397726858843

>  <7_score>  (9) 
-1554.3397726841263

>  <8_score>  (9) 
-1554.3397726837743

>  <9_score>  (9) 
-1554.3397726836852

>  <10_score>  (9) 
-1554.3397726836067

>  <11_score>  (9) 
-1554.3397726835856

>  <12_score>  (9) 
-1554.3397726828998

>  <13_score>  (9) 
-1554.3397726825483

>  <14_score>  (9) 
-1554.3397726817623

>  <15_score>  (9) 
-1554.3397726817191

>  <16_score>  (9) 
-1554.3397726811709

>  <17_score>  (9) 
-1554.3397726794165

$$$$

     RDKit          3D

140161  0  0  1  0  0  0  0  0999 V2000
    1.4443   -0.5664   -5.0838 N   0  0  0  0  0  0  0  0  0  0  0  0
    1.2353    0.7501   -5.6182 C   0  0  1  0  0  0  0  0  0  0  0  0
   -0.3168    0.8652   -5.7366 C   0  0  1  0  0  0  0  0  0  0  0  0
   -0.7945   -0.4021   -5.2605 N   0  0  0  0  0  0  0  0  0  0  0  0
    0.2758   -1.2989   -5.3118 C   0  0  0  0  0  0  0  0  0  0  0  0
    1.5955    1.8208   -4.7318 N   0  0  0  0  0  0  0  0  0  0  0  0
    0.5260    2.7198   -4.7033 C   0  0  0  0  0  0  0  0  0  0  0  0
   -0.6450    1.9829   -4.8974 N   0  0  0  0  0  0  0  0  0  0  0  0
    0.2242   -2.4448   -5.7257 O   0  0  0  0  0  0  0  0  0  0  0  0
    0.6167    3.9356   -4.7490 O   0  0  0  0  0  0  0  0  0  0  0  0
   -2.9941   -0.3970   -4.4008 N   0  0  0  0  0  0  0  0  0  0  0  0
   -3.6617    0.8737   -4.4277 C   0  0  1  0  0  0  0  0  0  0  0  0
   -4.7221    0.7655   -3.2880 C   0  0  1  0  0  0  0  0  0  0  0  0
   -4.5221   -0.5526   -2.7541 N   0  0  0  0  0  0  0  0  0  0  0  0
   -3.8152   -1.2893   -3.7078 C   0  0  0  0  0  0  0  0  0  0  0  0
   -2.8450    1.9871   -4.0352 N   0  0  0  0  0  0  0  0  0  0  0  0
   -3.5670    2.7273   -3.0959 C   0  0  0  0  0  0  0  0  0  0  0  0
   -4.3785    1.8333   -2.3917 N   0  0  0  0  0  0  0  0  0  0  0  0
   -4.0506   -2.4406   -4.0354 O   0  0  0  0  0  0  0  0  0  0  0  0
   -3.6540    3.9440   -3.0640 O   0  0  0  0  0  0  0  0  0  0  0  0
    5.0953   -1.5568    0.2285 N   0  0  0  0  0  0  0  0  0  0  0  0
    5.7248   -0.4712    0.9263 C   0  0  2  0  0  0  0  0  0  0  0  0
    5.2569   -0.6522    2.4036 C   0  0  2  0  0  0  0  0  0  0  0  0
    4.4250   -1.8218    2.3625 N   0  0  0  0  0  0  0  0  0  0  0  0
    4.7178   -2.5065    1.1807 C   0  0  0  0  0  0  0  0  0  0  0  0
    5.2406    0.8316    0.5665 N   0  0  0  0  0  0  0  0  0  0  0  0
    4.9492    1.5163    1.7487 C   0  0  0  0  0  0  0  0  0  0  0  0
    4.5592    0.5681    2.6974 N   0  0  0  0  0  0  0  0  0  0  0  0
    4.8511   -3.7147    1.0723 O   0  0  0  0  0  0  0  0  0  0  0  0
    5.2142    2.6853    1.9779 O   0  0  0  0  0  0  0  0  0  0  0  0
   -1.6438   -1.8185    4.7166 N   0  0  0  0  0  0  0  0  0  0  0  0
   -2.2252   -0.6521    5.3197 C   0  0  2  0  0  0  0  0  0  0  0  0
   -3.5748   -0.4671    4.5588 C   0  0  2  0  0  0  0  0  0  0  0  0
   -3.5910   -1.5491    3.6154 N   0  0  0  0  0  0  0  0  0  0  0  0
   -2.6671   -2.5017    4.0529 C   0  0  0  0  0  0  0  0  0  0  0  0
   -1.5152    0.5700    5.0664 N   0  0  0  0  0  0  0  0  0  0  0  0
   -2.4489    1.5195    4.6446 C   0  0  0  0  0  0  0  0  0  0  0  0
   -3.4643    0.8379    3.9707 N   0  0  0  0  0  0  0  0  0  0  0  0
   -2.8438   -3.7090    4.0690 O   0  0  0  0  0  0  0  0  0  0  0  0
   -2.4912    2.6847    5.0046 O   0  0  0  0  0  0  0  0  0  0  0  0
   -5.2245   -0.8427   -0.5165 N   0  0  0  0  0  0  0  0  0  0  0  0
   -5.7970    0.3196    0.1026 C   0  0  1  0  0  0  0  0  0  0  0  0
   -5.5808    0.0784    1.6289 C   0  0  1  0  0  0  0  0  0  0  0  0
   -4.9091   -1.1890    1.6874 N   0  0  0  0  0  0  0  0  0  0  0  0
   -5.1149   -1.8321    0.4645 C   0  0  0  0  0  0  0  0  0  0  0  0
   -5.0932    1.5443   -0.1571 N   0  0  0  0  0  0  0  0  0  0  0  0
   -4.9054    2.1881    1.0688 C   0  0  0  0  0  0  0  0  0  0  0  0
   -4.7847    1.1977    2.0462 N   0  0  0  0  0  0  0  0  0  0  0  0
   -5.3871   -3.0126    0.3183 O   0  0  0  0  0  0  0  0  0  0  0  0
   -5.0642    3.3792    1.2785 O   0  0  0  0  0  0  0  0  0  0  0  0
    4.0368   -2.5203    3.5589 C   0  0  0  0  0  0  0  0  0  0  0  0
   -1.9337    2.6211   -4.9506 C   0  0  0  0  0  0  0  0  0  0  0  0
    4.2229    0.9470    4.0442 C   0  0  0  0  0  0  0  0  0  0  0  0
   -2.1488   -0.8355   -5.4792 C   0  0  0  0  0  0  0  0  0  0  0  0
    3.4780   -0.8589   -3.9137 N   0  0  0  0  0  0  0  0  0  0  0  0
    4.3222    0.3009   -3.8541 C   0  0  2  0  0  0  0  0  0  0  0  0
    5.1999    0.0636   -2.5859 C   0  0  2  0  0  0  0  0  0  0  0  0
    4.7449   -1.2013   -2.0820 N   0  0  0  0  0  0  0  0  0  0  0  0
    4.0667   -1.8469   -3.1190 C   0  0  0  0  0  0  0  0  0  0  0  0
    3.6338    1.5294   -3.5732 N   0  0  0  0  0  0  0  0  0  0  0  0
    4.3288    2.1749   -2.5478 C   0  0  0  0  0  0  0  0  0  0  0  0
    4.9003    1.1867   -1.7433 N   0  0  0  0  0  0  0  0  0  0  0  0
    4.1755   -3.0259   -3.4139 O   0  0  0  0  0  0  0  0  0  0  0  0
    4.5905    3.3658   -2.5056 O   0  0  0  0  0  0  0  0  0  0  0  0
    2.7376   -1.1975   -5.1006 C   0  0  0  0  0  0  0  0  0  0  0  0
    2.9556    2.2723   -4.6017 C   0  0  0  0  0  0  0  0  0  0  0  0
    5.7127    1.5214   -0.6045 C   0  0  0  0  0  0  0  0  0  0  0  0
    5.4932   -1.9412   -1.1000 C   0  0  0  0  0  0  0  0  0  0  0  0
   -5.4889   -1.1775   -1.8909 C   0  0  0  0  0  0  0  0  0  0  0  0
   -5.2866    2.2896   -1.3726 C   0  0  0  0  0  0  0  0  0  0  0  0
   -4.7888   -1.9302    2.9152 C   0  0  0  0  0  0  0  0  0  0  0  0
   -4.6066    1.5293    3.4346 C   0  0  0  0  0  0  0  0  0  0  0  0
    0.8369    0.4134    5.2257 N   0  0  0  0  0  0  0  0  0  0  0  0
    1.3432   -0.8848    5.5717 C   0  0  2  0  0  0  0  0  0  0  0  0
    2.7987   -0.8838    5.0096 C   0  0  2  0  0  0  0  0  0  0  0  0
    2.9375    0.4135    4.4097 N   0  0  0  0  0  0  0  0  0  0  0  0
    1.9336    1.2299    4.9367 C   0  0  0  0  0  0  0  0  0  0  0  0
    0.7087   -1.9769    4.8878 N   0  0  0  0  0  0  0  0  0  0  0  0
    1.7208   -2.7976    4.3828 C   0  0  0  0  0  0  0  0  0  0  0  0
    2.8105   -1.9777    4.0795 N   0  0  0  0  0  0  0  0  0  0  0  0
    2.0741    2.3871    5.2978 O   0  0  0  0  0  0  0  0  0  0  0  0
    1.7401   -4.0161    4.4324 O   0  0  0  0  0  0  0  0  0  0  0  0
   -0.3553    0.9472    5.8295 C   0  0  0  0  0  0  0  0  0  0  0  0
   -0.5479   -2.5228    5.3279 C   0  0  0  0  0  0  0  0  0  0  0  0
    1.7222    0.8631   -6.5945 H   0  0  0  0  0  0  0  0  0  0  0  0
   -0.6294    1.0423   -6.7729 H   0  0  0  0  0  0  0  0  0  0  0  0
   -4.1343    1.0525   -5.4014 H   0  0  0  0  0  0  0  0  0  0  0  0
   -5.7413    0.8856   -3.6750 H   0  0  0  0  0  0  0  0  0  0  0  0
    6.8169   -0.5255    0.8408 H   0  0  0  0  0  0  0  0  0  0  0  0
    6.1080   -0.7943    3.0808 H   0  0  0  0  0  0  0  0  0  0  0  0
   -2.3868   -0.8006    6.3943 H   0  0  0  0  0  0  0  0  0  0  0  0
   -4.4321   -0.5230    5.2407 H   0  0  0  0  0  0  0  0  0  0  0  0
   -6.8618    0.4153   -0.1425 H   0  0  0  0  0  0  0  0  0  0  0  0
   -6.5344    0.0465    2.1700 H   0  0  0  0  0  0  0  0  0  0  0  0
    4.8276   -2.4242    4.3117 H   0  0  0  0  0  0  0  0  0  0  0  0
    3.9115   -3.5865    3.3450 H   0  0  0  0  0  0  0  0  0  0  0  0
   -2.3328    2.5543   -5.9691 H   0  0  0  0  0  0  0  0  0  0  0  0
   -1.8345    3.6828   -4.7030 H   0  0  0  0  0  0  0  0  0  0  0  0
    4.2131    2.0381    4.1333 H   0  0  0  0  0  0  0  0  0  0  0  0
    4.9858    0.5657    4.7324 H   0  0  0  0  0  0  0  0  0  0  0  0
   -2.1832   -1.9266   -5.5608 H   0  0  0  0  0  0  0  0  0  0  0  0
   -2.5171   -0.4205   -6.4243 H   0  0  0  0  0  0  0  0  0  0  0  0
    4.9379    0.3904   -4.7577 H   0  0  0  0  0  0  0  0  0  0  0  0
    6.2673    0.0301   -2.8363 H   0  0  0  0  0  0  0  0  0  0  0  0
    3.2939   -0.8682   -5.9857 H   0  0  0  0  0  0  0  0  0  0  0  0
    2.6199   -2.2835   -5.1680 H   0  0  0  0  0  0  0  0  0  0  0  0
    2.9726    3.3400   -4.3626 H   0  0  0  0  0  0  0  0  0  0  0  0
    3.4787    2.1378   -5.5553 H   0  0  0  0  0  0  0  0  0  0  0  0
    5.6915    2.6026   -0.4355 H   0  0  0  0  0  0  0  0  0  0  0  0
    6.7529    1.2377   -0.8015 H   0  0  0  0  0  0  0  0  0  0  0  0
    6.5632   -1.7444   -1.2317 H   0  0  0  0  0  0  0  0  0  0  0  0
    5.3343   -3.0147   -1.2410 H   0  0  0  0  0  0  0  0  0  0  0  0
   -5.4591   -2.2637   -2.0226 H   0  0  0  0  0  0  0  0  0  0  0  0
   -6.4946   -0.8383   -2.1632 H   0  0  0  0  0  0  0  0  0  0  0  0
   -6.3187    2.1623   -1.7185 H   0  0  0  0  0  0  0  0  0  0  0  0
   -5.1296    3.3563   -1.1841 H   0  0  0  0  0  0  0  0  0  0  0  0
   -4.7711   -3.0037    2.7028 H   0  0  0  0  0  0  0  0  0  0  0  0
   -5.6609   -1.7324    3.5487 H   0  0  0  0  0  0  0  0  0  0  0  0
   -5.5034    1.2443    3.9964 H   0  0  0  0  0  0  0  0  0  0  0  0
   -4.4758    2.6102    3.5466 H   0  0  0  0  0  0  0  0  0  0  0  0
    1.3324   -1.0381    6.6577 H   0  0  0  0  0  0  0  0  0  0  0  0
    3.5374   -1.0328    5.8064 H   0  0  0  0  0  0  0  0  0  0  0  0
   -0.4505    0.5639    6.8517 H   0  0  0  0  0  0  0  0  0  0  0  0
   -0.2870    2.0378    5.8899 H   0  0  0  0  0  0  0  0  0  0  0  0
   -0.6006   -3.5861    5.0737 H   0  0  0  0  0  0  0  0  0  0  0  0
   -0.6211   -2.4385    6.4182 H   0  0  0  0  0  0  0  0  0  0  0  0
   -0.1317    5.5332   -0.1070 C   0  0  0  0  0  0  0  0  0  0  0  0
   -0.5647    4.8378   -1.1657 C   0  0  0  0  0  0  0  0  0  0  0  0
   -0.5724    3.5115   -1.3466 C   0  0  0  0  0  0  0  0  0  0  0  0
   -0.1491    2.5531   -0.5135 C   0  0  0  0  0  0  0  0  0  0  0  0
    0.3864    2.6841    0.7063 C   0  0  0  0  0  3  0  0  0  0  0  0
    0.6310    3.8061    1.3942 C   0  0  0  0  0  0  0  0  0  0  0  0
    0.4004    5.0741    1.0323 C   0  0  0  0  0  0  0  0  0  0  0  0
   -0.2249    6.6181   -0.1827 H   0  0  0  0  0  0  0  0  0  0  0  0
   -0.9641    5.4306   -1.9904 H   0  0  0  0  0  0  0  0  0  0  0  0
   -0.9774    3.1659   -2.2994 H   0  0  0  0  0  0  0  0  0  0  0  0
   -0.2547    1.5292   -0.8768 H   0  0  0  0  0  0  0  0  0  0  0  0
    0.6599    1.7532    1.2060 H   0  0  0  0  0  0  0  0  0  0  0  0
    1.0775    3.6690    2.3807 H   0  0  0  0  0  0  0  0  0  0  0  0
    0.6838    5.8341    1.7627 H   0  0  0  0  0  0  0  0  0  0  0  0
  1  5  1  0
  1 65  1  0
  2  1  1  0
  2  6  1  0
  2  3  1  0
  2 85  1  6
  3  4  1  0
  3  8  1  0
  3 86  1  6
  4  5  1  0
  5  9  2  0
  6 66  1  0
  6  7  1  0
  7 10  2  0
  8 52  1  0
  8  7  1  0
 11 15  1  0
 12 11  1  0
 12 16  1  0
 12 13  1  0
 12 87  1  6
 13 14  1  0
 13 18  1  0
 13 88  1  6
 14 69  1  0
 15 19  2  0
 15 14  1  0
 16 17  1  0
 17 18  1  0
 17 20  2  0
 18 70  1  0
 21 25  1  0
 22 21  1  0
 22 23  1  0
 22 89  1  1
 23 24  1  0
 23 28  1  0
 23 90  1  1
 24 51  1  0
 25 24  1  0
 26 22  1  0
 26 27  1  0
 27 28  1  0
 28 53  1  0
 29 25  2  0
 30 27  2  0
 31 84  1  0
 32 31  1  0
 32 33  1  0
 32 91  1  1
 33 34  1  0
 33 92  1  1
 34 35  1  0
 35 31  1  0
 36 32  1  0
 36 83  1  0
 37 36  1  0
 38 37  1  0
 38 33  1  0
 39 35  2  0
 40 37  2  0
 41 45  1  0
 42 41  1  0
 42 43  1  0
 42 93  1  1
 43 44  1  0
 43 48  1  0
 43 94  1  1
 44 71  1  0
 45 44  1  0
 46 42  1  0
 46 47  1  0
 47 50  2  0
 47 48  1  0
 48 72  1  0
 49 45  2  0
 51 80  1  0
 51 95  1  0
 51 96  1  0
 52 16  1  0
 52 97  1  0
 52 98  1  0
 53 76  1  0
 53 99  1  0
 53100  1  0
 54  4  1  0
 54 11  1  0
 54101  1  0
 54102  1  0
 55 59  1  0
 56 55  1  0
 56 60  1  0
 56 57  1  0
 56103  1  6
 57 58  1  0
 57 62  1  0
 57104  1  6
 58 68  1  0
 59 63  2  0
 59 58  1  0
 60 61  1  0
 61 64  2  0
 61 62  1  0
 62 67  1  0
 65 55  1  0
 65105  1  0
 65106  1  0
 66 60  1  0
 66107  1  0
 66108  1  0
 67 26  1  0
 67109  1  0
 67110  1  0
 68 21  1  0
 68111  1  0
 68112  1  0
 69 41  1  0
 69113  1  0
 69114  1  0
 70 46  1  0
 70115  1  0
 70116  1  0
 71 34  1  0
 71117  1  0
 71118  1  0
 72 38  1  0
 72119  1  0
 72120  1  0
 73 74  1  0
 73 83  1  0
 74 78  1  0
 74 75  1  0
 74121  1  1
 75 80  1  0
 75122  1  1
 76 77  1  0
 76 75  1  0
 77 73  1  0
 78 84  1  0
 79 78  1  0
 80 79  1  0
 81 77  2  0
 82 79  2  0
 83123  1  0
 83124  1  0
 84125  1  0
 84126  1  0
127128  2  0
128129  1  0
129130  2  0
130131  1  0
131132  1  0
132133  2  0
133127  1  0
127134  1  0
128135  1  0
129136  1  0
130137  1  0
131138  1  0
132139  1  0
133140  1  0
M  CHG  1 131   1
M  END
>  <0_score>  (10) 
-1554.3397726930152

>  <1_score>  (10) 
-1554.339772690159

>  <2_score>  (10) 
-1554.3397726893772

>  <3_score>  (10) 
-1554.3397726881096

>  <4_score>  (10) 
-1554.3397726873966

>  <5_score>  (10) 
-1554.3397726873825

>  <6_score>  (10) 
-1554.3397726858843

>  <7_score>  (10) 
-1554.3397726841263

>  <8_score>  (10) 
-1554.3397726837743

>  <9_score>  (10) 
-1554.3397726836852

>  <10_score>  (10) 
-1554.3397726836067

>  <11_score>  (10) 
-1554.3397726835856

>  <12_score>  (10) 
-1554.3397726828998

>  <13_score>  (10) 
-1554.3397726825483

>  <14_score>  (10) 
-1554.3397726817623

>  <15_score>  (10) 
-1554.3397726817191

>  <16_score>  (10) 
-1554.3397726811709

>  <17_score>  (10) 
-1554.3397726794165

$$$$

     RDKit          3D

140161  0  0  1  0  0  0  0  0999 V2000
    1.4443   -0.5664   -5.0838 N   0  0  0  0  0  0  0  0  0  0  0  0
    1.2353    0.7501   -5.6182 C   0  0  1  0  0  0  0  0  0  0  0  0
   -0.3168    0.8652   -5.7366 C   0  0  1  0  0  0  0  0  0  0  0  0
   -0.7945   -0.4021   -5.2605 N   0  0  0  0  0  0  0  0  0  0  0  0
    0.2758   -1.2989   -5.3118 C   0  0  0  0  0  0  0  0  0  0  0  0
    1.5955    1.8208   -4.7318 N   0  0  0  0  0  0  0  0  0  0  0  0
    0.5260    2.7198   -4.7033 C   0  0  0  0  0  0  0  0  0  0  0  0
   -0.6450    1.9829   -4.8974 N   0  0  0  0  0  0  0  0  0  0  0  0
    0.2242   -2.4448   -5.7257 O   0  0  0  0  0  0  0  0  0  0  0  0
    0.6167    3.9356   -4.7490 O   0  0  0  0  0  0  0  0  0  0  0  0
   -2.9941   -0.3970   -4.4008 N   0  0  0  0  0  0  0  0  0  0  0  0
   -3.6617    0.8737   -4.4277 C   0  0  1  0  0  0  0  0  0  0  0  0
   -4.7221    0.7655   -3.2880 C   0  0  1  0  0  0  0  0  0  0  0  0
   -4.5221   -0.5526   -2.7541 N   0  0  0  0  0  0  0  0  0  0  0  0
   -3.8152   -1.2893   -3.7078 C   0  0  0  0  0  0  0  0  0  0  0  0
   -2.8450    1.9871   -4.0352 N   0  0  0  0  0  0  0  0  0  0  0  0
   -3.5670    2.7273   -3.0959 C   0  0  0  0  0  0  0  0  0  0  0  0
   -4.3785    1.8333   -2.3917 N   0  0  0  0  0  0  0  0  0  0  0  0
   -4.0506   -2.4406   -4.0354 O   0  0  0  0  0  0  0  0  0  0  0  0
   -3.6540    3.9440   -3.0640 O   0  0  0  0  0  0  0  0  0  0  0  0
    5.0953   -1.5568    0.2285 N   0  0  0  0  0  0  0  0  0  0  0  0
    5.7248   -0.4712    0.9263 C   0  0  2  0  0  0  0  0  0  0  0  0
    5.2569   -0.6522    2.4036 C   0  0  2  0  0  0  0  0  0  0  0  0
    4.4250   -1.8218    2.3625 N   0  0  0  0  0  0  0  0  0  0  0  0
    4.7178   -2.5065    1.1807 C   0  0  0  0  0  0  0  0  0  0  0  0
    5.2406    0.8316    0.5665 N   0  0  0  0  0  0  0  0  0  0  0  0
    4.9492    1.5163    1.7487 C   0  0  0  0  0  0  0  0  0  0  0  0
    4.5592    0.5681    2.6974 N   0  0  0  0  0  0  0  0  0  0  0  0
    4.8511   -3.7147    1.0723 O   0  0  0  0  0  0  0  0  0  0  0  0
    5.2142    2.6853    1.9779 O   0  0  0  0  0  0  0  0  0  0  0  0
   -1.6438   -1.8185    4.7166 N   0  0  0  0  0  0  0  0  0  0  0  0
   -2.2252   -0.6521    5.3197 C   0  0  2  0  0  0  0  0  0  0  0  0
   -3.5748   -0.4671    4.5588 C   0  0  2  0  0  0  0  0  0  0  0  0
   -3.5910   -1.5491    3.6154 N   0  0  0  0  0  0  0  0  0  0  0  0
   -2.6671   -2.5017    4.0529 C   0  0  0  0  0  0  0  0  0  0  0  0
   -1.5152    0.5700    5.0664 N   0  0  0  0  0  0  0  0  0  0  0  0
   -2.4489    1.5195    4.6446 C   0  0  0  0  0  0  0  0  0  0  0  0
   -3.4643    0.8379    3.9707 N   0  0  0  0  0  0  0  0  0  0  0  0
   -2.8438   -3.7090    4.0690 O   0  0  0  0  0  0  0  0  0  0  0  0
   -2.4912    2.6847    5.0046 O   0  0  0  0  0  0  0  0  0  0  0  0
   -5.2245   -0.8427   -0.5165 N   0  0  0  0  0  0  0  0  0  0  0  0
   -5.7970    0.3196    0.1026 C   0  0  1  0  0  0  0  0  0  0  0  0
   -5.5808    0.0784    1.6289 C   0  0  1  0  0  0  0  0  0  0  0  0
   -4.9091   -1.1890    1.6874 N   0  0  0  0  0  0  0  0  0  0  0  0
   -5.1149   -1.8321    0.4645 C   0  0  0  0  0  0  0  0  0  0  0  0
   -5.0932    1.5443   -0.1571 N   0  0  0  0  0  0  0  0  0  0  0  0
   -4.9054    2.1881    1.0688 C   0  0  0  0  0  0  0  0  0  0  0  0
   -4.7847    1.1977    2.0462 N   0  0  0  0  0  0  0  0  0  0  0  0
   -5.3871   -3.0126    0.3183 O   0  0  0  0  0  0  0  0  0  0  0  0
   -5.0642    3.3792    1.2785 O   0  0  0  0  0  0  0  0  0  0  0  0
    4.0368   -2.5203    3.5589 C   0  0  0  0  0  0  0  0  0  0  0  0
   -1.9337    2.6211   -4.9506 C   0  0  0  0  0  0  0  0  0  0  0  0
    4.2229    0.9470    4.0442 C   0  0  0  0  0  0  0  0  0  0  0  0
   -2.1488   -0.8355   -5.4792 C   0  0  0  0  0  0  0  0  0  0  0  0
    3.4780   -0.8589   -3.9137 N   0  0  0  0  0  0  0  0  0  0  0  0
    4.3222    0.3009   -3.8541 C   0  0  2  0  0  0  0  0  0  0  0  0
    5.1999    0.0636   -2.5859 C   0  0  2  0  0  0  0  0  0  0  0  0
    4.7449   -1.2013   -2.0820 N   0  0  0  0  0  0  0  0  0  0  0  0
    4.0667   -1.8469   -3.1190 C   0  0  0  0  0  0  0  0  0  0  0  0
    3.6338    1.5294   -3.5732 N   0  0  0  0  0  0  0  0  0  0  0  0
    4.3288    2.1749   -2.5478 C   0  0  0  0  0  0  0  0  0  0  0  0
    4.9003    1.1867   -1.7433 N   0  0  0  0  0  0  0  0  0  0  0  0
    4.1755   -3.0259   -3.4139 O   0  0  0  0  0  0  0  0  0  0  0  0
    4.5905    3.3658   -2.5056 O   0  0  0  0  0  0  0  0  0  0  0  0
    2.7376   -1.1975   -5.1006 C   0  0  0  0  0  0  0  0  0  0  0  0
    2.9556    2.2723   -4.6017 C   0  0  0  0  0  0  0  0  0  0  0  0
    5.7127    1.5214   -0.6045 C   0  0  0  0  0  0  0  0  0  0  0  0
    5.4932   -1.9412   -1.1000 C   0  0  0  0  0  0  0  0  0  0  0  0
   -5.4889   -1.1775   -1.8909 C   0  0  0  0  0  0  0  0  0  0  0  0
   -5.2866    2.2896   -1.3726 C   0  0  0  0  0  0  0  0  0  0  0  0
   -4.7888   -1.9302    2.9152 C   0  0  0  0  0  0  0  0  0  0  0  0
   -4.6066    1.5293    3.4346 C   0  0  0  0  0  0  0  0  0  0  0  0
    0.8369    0.4134    5.2257 N   0  0  0  0  0  0  0  0  0  0  0  0
    1.3432   -0.8848    5.5717 C   0  0  2  0  0  0  0  0  0  0  0  0
    2.7987   -0.8838    5.0096 C   0  0  2  0  0  0  0  0  0  0  0  0
    2.9375    0.4135    4.4097 N   0  0  0  0  0  0  0  0  0  0  0  0
    1.9336    1.2299    4.9367 C   0  0  0  0  0  0  0  0  0  0  0  0
    0.7087   -1.9769    4.8878 N   0  0  0  0  0  0  0  0  0  0  0  0
    1.7208   -2.7976    4.3828 C   0  0  0  0  0  0  0  0  0  0  0  0
    2.8105   -1.9777    4.0795 N   0  0  0  0  0  0  0  0  0  0  0  0
    2.0741    2.3871    5.2978 O   0  0  0  0  0  0  0  0  0  0  0  0
    1.7401   -4.0161    4.4324 O   0  0  0  0  0  0  0  0  0  0  0  0
   -0.3553    0.9472    5.8295 C   0  0  0  0  0  0  0  0  0  0  0  0
   -0.5479   -2.5228    5.3279 C   0  0  0  0  0  0  0  0  0  0  0  0
    1.7222    0.8631   -6.5945 H   0  0  0  0  0  0  0  0  0  0  0  0
   -0.6294    1.0423   -6.7729 H   0  0  0  0  0  0  0  0  0  0  0  0
   -4.1343    1.0525   -5.4014 H   0  0  0  0  0  0  0  0  0  0  0  0
   -5.7413    0.8856   -3.6750 H   0  0  0  0  0  0  0  0  0  0  0  0
    6.8169   -0.5255    0.8408 H   0  0  0  0  0  0  0  0  0  0  0  0
    6.1080   -0.7943    3.0808 H   0  0  0  0  0  0  0  0  0  0  0  0
   -2.3868   -0.8006    6.3943 H   0  0  0  0  0  0  0  0  0  0  0  0
   -4.4321   -0.5230    5.2407 H   0  0  0  0  0  0  0  0  0  0  0  0
   -6.8618    0.4153   -0.1425 H   0  0  0  0  0  0  0  0  0  0  0  0
   -6.5344    0.0465    2.1700 H   0  0  0  0  0  0  0  0  0  0  0  0
    4.8276   -2.4242    4.3117 H   0  0  0  0  0  0  0  0  0  0  0  0
    3.9115   -3.5865    3.3450 H   0  0  0  0  0  0  0  0  0  0  0  0
   -2.3328    2.5543   -5.9691 H   0  0  0  0  0  0  0  0  0  0  0  0
   -1.8345    3.6828   -4.7030 H   0  0  0  0  0  0  0  0  0  0  0  0
    4.2131    2.0381    4.1333 H   0  0  0  0  0  0  0  0  0  0  0  0
    4.9858    0.5657    4.7324 H   0  0  0  0  0  0  0  0  0  0  0  0
   -2.1832   -1.9266   -5.5608 H   0  0  0  0  0  0  0  0  0  0  0  0
   -2.5171   -0.4205   -6.4243 H   0  0  0  0  0  0  0  0  0  0  0  0
    4.9379    0.3904   -4.7577 H   0  0  0  0  0  0  0  0  0  0  0  0
    6.2673    0.0301   -2.8363 H   0  0  0  0  0  0  0  0  0  0  0  0
    3.2939   -0.8682   -5.9857 H   0  0  0  0  0  0  0  0  0  0  0  0
    2.6199   -2.2835   -5.1680 H   0  0  0  0  0  0  0  0  0  0  0  0
    2.9726    3.3400   -4.3626 H   0  0  0  0  0  0  0  0  0  0  0  0
    3.4787    2.1378   -5.5553 H   0  0  0  0  0  0  0  0  0  0  0  0
    5.6915    2.6026   -0.4355 H   0  0  0  0  0  0  0  0  0  0  0  0
    6.7529    1.2377   -0.8015 H   0  0  0  0  0  0  0  0  0  0  0  0
    6.5632   -1.7444   -1.2317 H   0  0  0  0  0  0  0  0  0  0  0  0
    5.3343   -3.0147   -1.2410 H   0  0  0  0  0  0  0  0  0  0  0  0
   -5.4591   -2.2637   -2.0226 H   0  0  0  0  0  0  0  0  0  0  0  0
   -6.4946   -0.8383   -2.1632 H   0  0  0  0  0  0  0  0  0  0  0  0
   -6.3187    2.1623   -1.7185 H   0  0  0  0  0  0  0  0  0  0  0  0
   -5.1296    3.3563   -1.1841 H   0  0  0  0  0  0  0  0  0  0  0  0
   -4.7711   -3.0037    2.7028 H   0  0  0  0  0  0  0  0  0  0  0  0
   -5.6609   -1.7324    3.5487 H   0  0  0  0  0  0  0  0  0  0  0  0
   -5.5034    1.2443    3.9964 H   0  0  0  0  0  0  0  0  0  0  0  0
   -4.4758    2.6102    3.5466 H   0  0  0  0  0  0  0  0  0  0  0  0
    1.3324   -1.0381    6.6577 H   0  0  0  0  0  0  0  0  0  0  0  0
    3.5374   -1.0328    5.8064 H   0  0  0  0  0  0  0  0  0  0  0  0
   -0.4505    0.5639    6.8517 H   0  0  0  0  0  0  0  0  0  0  0  0
   -0.2870    2.0378    5.8899 H   0  0  0  0  0  0  0  0  0  0  0  0
   -0.6006   -3.5861    5.0737 H   0  0  0  0  0  0  0  0  0  0  0  0
   -0.6211   -2.4385    6.4182 H   0  0  0  0  0  0  0  0  0  0  0  0
   -0.1317   -1.4929   -0.3654 C   0  0  0  0  0  0  0  0  0  0  0  0
   -0.5647   -1.1533    0.8549 C   0  0  0  0  0  0  0  0  0  0  0  0
   -0.5724    0.0548    1.4314 C   0  0  0  0  0  0  0  0  0  0  0  0
   -0.1491    1.2216    0.9301 C   0  0  0  0  0  0  0  0  0  0  0  0
    0.3864    1.4686   -0.2716 C   0  0  0  0  0  3  0  0  0  0  0  0
    0.6310    0.6096   -1.2687 C   0  0  0  0  0  0  0  0  0  0  0  0
    0.4004   -0.7083   -1.3106 C   0  0  0  0  0  0  0  0  0  0  0  0
   -0.2249   -2.5492   -0.6241 H   0  0  0  0  0  0  0  0  0  0  0  0
   -0.9641   -1.9693    1.4597 H   0  0  0  0  0  0  0  0  0  0  0  0
   -0.9774    0.0935    2.4442 H   0  0  0  0  0  0  0  0  0  0  0  0
   -0.2547    2.0859    1.5882 H   0  0  0  0  0  0  0  0  0  0  0  0
    0.6599    2.5075   -0.4638 H   0  0  0  0  0  0  0  0  0  0  0  0
    1.0775    1.0410   -2.1665 H   0  0  0  0  0  0  0  0  0  0  0  0
    0.6838   -1.2095   -2.2379 H   0  0  0  0  0  0  0  0  0  0  0  0
  1  5  1  0
  1 65  1  0
  2  1  1  0
  2  6  1  0
  2  3  1  0
  2 85  1  6
  3  4  1  0
  3  8  1  0
  3 86  1  6
  4  5  1  0
  5  9  2  0
  6 66  1  0
  6  7  1  0
  7 10  2  0
  8 52  1  0
  8  7  1  0
 11 15  1  0
 12 11  1  0
 12 16  1  0
 12 13  1  0
 12 87  1  6
 13 14  1  0
 13 18  1  0
 13 88  1  6
 14 69  1  0
 15 19  2  0
 15 14  1  0
 16 17  1  0
 17 18  1  0
 17 20  2  0
 18 70  1  0
 21 25  1  0
 22 21  1  0
 22 23  1  0
 22 89  1  1
 23 24  1  0
 23 28  1  0
 23 90  1  1
 24 51  1  0
 25 24  1  0
 26 22  1  0
 26 27  1  0
 27 28  1  0
 28 53  1  0
 29 25  2  0
 30 27  2  0
 31 84  1  0
 32 31  1  0
 32 33  1  0
 32 91  1  1
 33 34  1  0
 33 92  1  1
 34 35  1  0
 35 31  1  0
 36 32  1  0
 36 83  1  0
 37 36  1  0
 38 37  1  0
 38 33  1  0
 39 35  2  0
 40 37  2  0
 41 45  1  0
 42 41  1  0
 42 43  1  0
 42 93  1  1
 43 44  1  0
 43 48  1  0
 43 94  1  1
 44 71  1  0
 45 44  1  0
 46 42  1  0
 46 47  1  0
 47 50  2  0
 47 48  1  0
 48 72  1  0
 49 45  2  0
 51 80  1  0
 51 95  1  0
 51 96  1  0
 52 16  1  0
 52 97  1  0
 52 98  1  0
 53 76  1  0
 53 99  1  0
 53100  1  0
 54  4  1  0
 54 11  1  0
 54101  1  0
 54102  1  0
 55 59  1  0
 56 55  1  0
 56 60  1  0
 56 57  1  0
 56103  1  6
 57 58  1  0
 57 62  1  0
 57104  1  6
 58 68  1  0
 59 63  2  0
 59 58  1  0
 60 61  1  0
 61 64  2  0
 61 62  1  0
 62 67  1  0
 65 55  1  0
 65105  1  0
 65106  1  0
 66 60  1  0
 66107  1  0
 66108  1  0
 67 26  1  0
 67109  1  0
 67110  1  0
 68 21  1  0
 68111  1  0
 68112  1  0
 69 41  1  0
 69113  1  0
 69114  1  0
 70 46  1  0
 70115  1  0
 70116  1  0
 71 34  1  0
 71117  1  0
 71118  1  0
 72 38  1  0
 72119  1  0
 72120  1  0
 73 74  1  0
 73 83  1  0
 74 78  1  0
 74 75  1  0
 74121  1  1
 75 80  1  0
 75122  1  1
 76 77  1  0
 76 75  1  0
 77 73  1  0
 78 84  1  0
 79 78  1  0
 80 79  1  0
 81 77  2  0
 82 79  2  0
 83123  1  0
 83124  1  0
 84125  1  0
 84126  1  0
127128  2  0
128129  1  0
129130  2  0
130131  1  0
131132  1  0
132133  2  0
133127  1  0
127134  1  0
128135  1  0
129136  1  0
130137  1  0
131138  1  0
132139  1  0
133140  1  0
M  CHG  1 131   1
M  END
>  <0_score>  (11) 
-1554.3397726930152

>  <1_score>  (11) 
-1554.339772690159

>  <2_score>  (11) 
-1554.3397726893772

>  <3_score>  (11) 
-1554.3397726881096

>  <4_score>  (11) 
-1554.3397726873966

>  <5_score>  (11) 
-1554.3397726873825

>  <6_score>  (11) 
-1554.3397726858843

>  <7_score>  (11) 
-1554.3397726841263

>  <8_score>  (11) 
-1554.3397726837743

>  <9_score>  (11) 
-1554.3397726836852

>  <10_score>  (11) 
-1554.3397726836067

>  <11_score>  (11) 
-1554.3397726835856

>  <12_score>  (11) 
-1554.3397726828998

>  <13_score>  (11) 
-1554.3397726825483

>  <14_score>  (11) 
-1554.3397726817623

>  <15_score>  (11) 
-1554.3397726817191

>  <16_score>  (11) 
-1554.3397726811709

>  <17_score>  (11) 
-1554.3397726794165

$$$$

     RDKit          3D

140161  0  0  1  0  0  0  0  0999 V2000
    1.4443   -0.5664   -5.0838 N   0  0  0  0  0  0  0  0  0  0  0  0
    1.2353    0.7501   -5.6182 C   0  0  1  0  0  0  0  0  0  0  0  0
   -0.3168    0.8652   -5.7366 C   0  0  1  0  0  0  0  0  0  0  0  0
   -0.7945   -0.4021   -5.2605 N   0  0  0  0  0  0  0  0  0  0  0  0
    0.2758   -1.2989   -5.3118 C   0  0  0  0  0  0  0  0  0  0  0  0
    1.5955    1.8208   -4.7318 N   0  0  0  0  0  0  0  0  0  0  0  0
    0.5260    2.7198   -4.7033 C   0  0  0  0  0  0  0  0  0  0  0  0
   -0.6450    1.9829   -4.8974 N   0  0  0  0  0  0  0  0  0  0  0  0
    0.2242   -2.4448   -5.7257 O   0  0  0  0  0  0  0  0  0  0  0  0
    0.6167    3.9356   -4.7490 O   0  0  0  0  0  0  0  0  0  0  0  0
   -2.9941   -0.3970   -4.4008 N   0  0  0  0  0  0  0  0  0  0  0  0
   -3.6617    0.8737   -4.4277 C   0  0  1  0  0  0  0  0  0  0  0  0
   -4.7221    0.7655   -3.2880 C   0  0  1  0  0  0  0  0  0  0  0  0
   -4.5221   -0.5526   -2.7541 N   0  0  0  0  0  0  0  0  0  0  0  0
   -3.8152   -1.2893   -3.7078 C   0  0  0  0  0  0  0  0  0  0  0  0
   -2.8450    1.9871   -4.0352 N   0  0  0  0  0  0  0  0  0  0  0  0
   -3.5670    2.7273   -3.0959 C   0  0  0  0  0  0  0  0  0  0  0  0
   -4.3785    1.8333   -2.3917 N   0  0  0  0  0  0  0  0  0  0  0  0
   -4.0506   -2.4406   -4.0354 O   0  0  0  0  0  0  0  0  0  0  0  0
   -3.6540    3.9440   -3.0640 O   0  0  0  0  0  0  0  0  0  0  0  0
    5.0953   -1.5568    0.2285 N   0  0  0  0  0  0  0  0  0  0  0  0
    5.7248   -0.4712    0.9263 C   0  0  2  0  0  0  0  0  0  0  0  0
    5.2569   -0.6522    2.4036 C   0  0  2  0  0  0  0  0  0  0  0  0
    4.4250   -1.8218    2.3625 N   0  0  0  0  0  0  0  0  0  0  0  0
    4.7178   -2.5065    1.1807 C   0  0  0  0  0  0  0  0  0  0  0  0
    5.2406    0.8316    0.5665 N   0  0  0  0  0  0  0  0  0  0  0  0
    4.9492    1.5163    1.7487 C   0  0  0  0  0  0  0  0  0  0  0  0
    4.5592    0.5681    2.6974 N   0  0  0  0  0  0  0  0  0  0  0  0
    4.8511   -3.7147    1.0723 O   0  0  0  0  0  0  0  0  0  0  0  0
    5.2142    2.6853    1.9779 O   0  0  0  0  0  0  0  0  0  0  0  0
   -1.6438   -1.8185    4.7166 N   0  0  0  0  0  0  0  0  0  0  0  0
   -2.2252   -0.6521    5.3197 C   0  0  2  0  0  0  0  0  0  0  0  0
   -3.5748   -0.4671    4.5588 C   0  0  2  0  0  0  0  0  0  0  0  0
   -3.5910   -1.5491    3.6154 N   0  0  0  0  0  0  0  0  0  0  0  0
   -2.6671   -2.5017    4.0529 C   0  0  0  0  0  0  0  0  0  0  0  0
   -1.5152    0.5700    5.0664 N   0  0  0  0  0  0  0  0  0  0  0  0
   -2.4489    1.5195    4.6446 C   0  0  0  0  0  0  0  0  0  0  0  0
   -3.4643    0.8379    3.9707 N   0  0  0  0  0  0  0  0  0  0  0  0
   -2.8438   -3.7090    4.0690 O   0  0  0  0  0  0  0  0  0  0  0  0
   -2.4912    2.6847    5.0046 O   0  0  0  0  0  0  0  0  0  0  0  0
   -5.2245   -0.8427   -0.5165 N   0  0  0  0  0  0  0  0  0  0  0  0
   -5.7970    0.3196    0.1026 C   0  0  1  0  0  0  0  0  0  0  0  0
   -5.5808    0.0784    1.6289 C   0  0  1  0  0  0  0  0  0  0  0  0
   -4.9091   -1.1890    1.6874 N   0  0  0  0  0  0  0  0  0  0  0  0
   -5.1149   -1.8321    0.4645 C   0  0  0  0  0  0  0  0  0  0  0  0
   -5.0932    1.5443   -0.1571 N   0  0  0  0  0  0  0  0  0  0  0  0
   -4.9054    2.1881    1.0688 C   0  0  0  0  0  0  0  0  0  0  0  0
   -4.7847    1.1977    2.0462 N   0  0  0  0  0  0  0  0  0  0  0  0
   -5.3871   -3.0126    0.3183 O   0  0  0  0  0  0  0  0  0  0  0  0
   -5.0642    3.3792    1.2785 O   0  0  0  0  0  0  0  0  0  0  0  0
    4.0368   -2.5203    3.5589 C   0  0  0  0  0  0  0  0  0  0  0  0
   -1.9337    2.6211   -4.9506 C   0  0  0  0  0  0  0  0  0  0  0  0
    4.2229    0.9470    4.0442 C   0  0  0  0  0  0  0  0  0  0  0  0
   -2.1488   -0.8355   -5.4792 C   0  0  0  0  0  0  0  0  0  0  0  0
    3.4780   -0.8589   -3.9137 N   0  0  0  0  0  0  0  0  0  0  0  0
    4.3222    0.3009   -3.8541 C   0  0  2  0  0  0  0  0  0  0  0  0
    5.1999    0.0636   -2.5859 C   0  0  2  0  0  0  0  0  0  0  0  0
    4.7449   -1.2013   -2.0820 N   0  0  0  0  0  0  0  0  0  0  0  0
    4.0667   -1.8469   -3.1190 C   0  0  0  0  0  0  0  0  0  0  0  0
    3.6338    1.5294   -3.5732 N   0  0  0  0  0  0  0  0  0  0  0  0
    4.3288    2.1749   -2.5478 C   0  0  0  0  0  0  0  0  0  0  0  0
    4.9003    1.1867   -1.7433 N   0  0  0  0  0  0  0  0  0  0  0  0
    4.1755   -3.0259   -3.4139 O   0  0  0  0  0  0  0  0  0  0  0  0
    4.5905    3.3658   -2.5056 O   0  0  0  0  0  0  0  0  0  0  0  0
    2.7376   -1.1975   -5.1006 C   0  0  0  0  0  0  0  0  0  0  0  0
    2.9556    2.2723   -4.6017 C   0  0  0  0  0  0  0  0  0  0  0  0
    5.7127    1.5214   -0.6045 C   0  0  0  0  0  0  0  0  0  0  0  0
    5.4932   -1.9412   -1.1000 C   0  0  0  0  0  0  0  0  0  0  0  0
   -5.4889   -1.1775   -1.8909 C   0  0  0  0  0  0  0  0  0  0  0  0
   -5.2866    2.2896   -1.3726 C   0  0  0  0  0  0  0  0  0  0  0  0
   -4.7888   -1.9302    2.9152 C   0  0  0  0  0  0  0  0  0  0  0  0
   -4.6066    1.5293    3.4346 C   0  0  0  0  0  0  0  0  0  0  0  0
    0.8369    0.4134    5.2257 N   0  0  0  0  0  0  0  0  0  0  0  0
    1.3432   -0.8848    5.5717 C   0  0  2  0  0  0  0  0  0  0  0  0
    2.7987   -0.8838    5.0096 C   0  0  2  0  0  0  0  0  0  0  0  0
    2.9375    0.4135    4.4097 N   0  0  0  0  0  0  0  0  0  0  0  0
    1.9336    1.2299    4.9367 C   0  0  0  0  0  0  0  0  0  0  0  0
    0.7087   -1.9769    4.8878 N   0  0  0  0  0  0  0  0  0  0  0  0
    1.7208   -2.7976    4.3828 C   0  0  0  0  0  0  0  0  0  0  0  0
    2.8105   -1.9777    4.0795 N   0  0  0  0  0  0  0  0  0  0  0  0
    2.0741    2.3871    5.2978 O   0  0  0  0  0  0  0  0  0  0  0  0
    1.7401   -4.0161    4.4324 O   0  0  0  0  0  0  0  0  0  0  0  0
   -0.3553    0.9472    5.8295 C   0  0  0  0  0  0  0  0  0  0  0  0
   -0.5479   -2.5228    5.3279 C   0  0  0  0  0  0  0  0  0  0  0  0
    1.7222    0.8631   -6.5945 H   0  0  0  0  0  0  0  0  0  0  0  0
   -0.6294    1.0423   -6.7729 H   0  0  0  0  0  0  0  0  0  0  0  0
   -4.1343    1.0525   -5.4014 H   0  0  0  0  0  0  0  0  0  0  0  0
   -5.7413    0.8856   -3.6750 H   0  0  0  0  0  0  0  0  0  0  0  0
    6.8169   -0.5255    0.8408 H   0  0  0  0  0  0  0  0  0  0  0  0
    6.1080   -0.7943    3.0808 H   0  0  0  0  0  0  0  0  0  0  0  0
   -2.3868   -0.8006    6.3943 H   0  0  0  0  0  0  0  0  0  0  0  0
   -4.4321   -0.5230    5.2407 H   0  0  0  0  0  0  0  0  0  0  0  0
   -6.8618    0.4153   -0.1425 H   0  0  0  0  0  0  0  0  0  0  0  0
   -6.5344    0.0465    2.1700 H   0  0  0  0  0  0  0  0  0  0  0  0
    4.8276   -2.4242    4.3117 H   0  0  0  0  0  0  0  0  0  0  0  0
    3.9115   -3.5865    3.3450 H   0  0  0  0  0  0  0  0  0  0  0  0
   -2.3328    2.5543   -5.9691 H   0  0  0  0  0  0  0  0  0  0  0  0
   -1.8345    3.6828   -4.7030 H   0  0  0  0  0  0  0  0  0  0  0  0
    4.2131    2.0381    4.1333 H   0  0  0  0  0  0  0  0  0  0  0  0
    4.9858    0.5657    4.7324 H   0  0  0  0  0  0  0  0  0  0  0  0
   -2.1832   -1.9266   -5.5608 H   0  0  0  0  0  0  0  0  0  0  0  0
   -2.5171   -0.4205   -6.4243 H   0  0  0  0  0  0  0  0  0  0  0  0
    4.9379    0.3904   -4.7577 H   0  0  0  0  0  0  0  0  0  0  0  0
    6.2673    0.0301   -2.8363 H   0  0  0  0  0  0  0  0  0  0  0  0
    3.2939   -0.8682   -5.9857 H   0  0  0  0  0  0  0  0  0  0  0  0
    2.6199   -2.2835   -5.1680 H   0  0  0  0  0  0  0  0  0  0  0  0
    2.9726    3.3400   -4.3626 H   0  0  0  0  0  0  0  0  0  0  0  0
    3.4787    2.1378   -5.5553 H   0  0  0  0  0  0  0  0  0  0  0  0
    5.6915    2.6026   -0.4355 H   0  0  0  0  0  0  0  0  0  0  0  0
    6.7529    1.2377   -0.8015 H   0  0  0  0  0  0  0  0  0  0  0  0
    6.5632   -1.7444   -1.2317 H   0  0  0  0  0  0  0  0  0  0  0  0
    5.3343   -3.0147   -1.2410 H   0  0  0  0  0  0  0  0  0  0  0  0
   -5.4591   -2.2637   -2.0226 H   0  0  0  0  0  0  0  0  0  0  0  0
   -6.4946   -0.8383   -2.1632 H   0  0  0  0  0  0  0  0  0  0  0  0
   -6.3187    2.1623   -1.7185 H   0  0  0  0  0  0  0  0  0  0  0  0
   -5.1296    3.3563   -1.1841 H   0  0  0  0  0  0  0  0  0  0  0  0
   -4.7711   -3.0037    2.7028 H   0  0  0  0  0  0  0  0  0  0  0  0
   -5.6609   -1.7324    3.5487 H   0  0  0  0  0  0  0  0  0  0  0  0
   -5.5034    1.2443    3.9964 H   0  0  0  0  0  0  0  0  0  0  0  0
   -4.4758    2.6102    3.5466 H   0  0  0  0  0  0  0  0  0  0  0  0
    1.3324   -1.0381    6.6577 H   0  0  0  0  0  0  0  0  0  0  0  0
    3.5374   -1.0328    5.8064 H   0  0  0  0  0  0  0  0  0  0  0  0
   -0.4505    0.5639    6.8517 H   0  0  0  0  0  0  0  0  0  0  0  0
   -0.2870    2.0378    5.8899 H   0  0  0  0  0  0  0  0  0  0  0  0
   -0.6006   -3.5861    5.0737 H   0  0  0  0  0  0  0  0  0  0  0  0
   -0.6211   -2.4385    6.4182 H   0  0  0  0  0  0  0  0  0  0  0  0
   -0.1317    1.5332   -0.1070 C   0  0  0  0  0  0  0  0  0  0  0  0
   -0.5647    0.8378   -1.1657 C   0  0  0  0  0  0  0  0  0  0  0  0
   -0.5724   -0.4885   -1.3466 C   0  0  0  0  0  0  0  0  0  0  0  0
   -0.1491   -1.4469   -0.5135 C   0  0  0  0  0  0  0  0  0  0  0  0
    0.3864   -1.3159    0.7063 C   0  0  0  0  0  3  0  0  0  0  0  0
    0.6310   -0.1939    1.3942 C   0  0  0  0  0  0  0  0  0  0  0  0
    0.4004    1.0741    1.0323 C   0  0  0  0  0  0  0  0  0  0  0  0
   -0.2249    2.6181   -0.1827 H   0  0  0  0  0  0  0  0  0  0  0  0
   -0.9641    1.4306   -1.9904 H   0  0  0  0  0  0  0  0  0  0  0  0
   -0.9774   -0.8341   -2.2994 H   0  0  0  0  0  0  0  0  0  0  0  0
   -0.2547   -2.4708   -0.8768 H   0  0  0  0  0  0  0  0  0  0  0  0
    0.6599   -2.2468    1.2060 H   0  0  0  0  0  0  0  0  0  0  0  0
    1.0775   -0.3310    2.3807 H   0  0  0  0  0  0  0  0  0  0  0  0
    0.6838    1.8341    1.7627 H   0  0  0  0  0  0  0  0  0  0  0  0
  1  5  1  0
  1 65  1  0
  2  1  1  0
  2  6  1  0
  2  3  1  0
  2 85  1  6
  3  4  1  0
  3  8  1  0
  3 86  1  6
  4  5  1  0
  5  9  2  0
  6 66  1  0
  6  7  1  0
  7 10  2  0
  8 52  1  0
  8  7  1  0
 11 15  1  0
 12 11  1  0
 12 16  1  0
 12 13  1  0
 12 87  1  6
 13 14  1  0
 13 18  1  0
 13 88  1  6
 14 69  1  0
 15 19  2  0
 15 14  1  0
 16 17  1  0
 17 18  1  0
 17 20  2  0
 18 70  1  0
 21 25  1  0
 22 21  1  0
 22 23  1  0
 22 89  1  1
 23 24  1  0
 23 28  1  0
 23 90  1  1
 24 51  1  0
 25 24  1  0
 26 22  1  0
 26 27  1  0
 27 28  1  0
 28 53  1  0
 29 25  2  0
 30 27  2  0
 31 84  1  0
 32 31  1  0
 32 33  1  0
 32 91  1  1
 33 34  1  0
 33 92  1  1
 34 35  1  0
 35 31  1  0
 36 32  1  0
 36 83  1  0
 37 36  1  0
 38 37  1  0
 38 33  1  0
 39 35  2  0
 40 37  2  0
 41 45  1  0
 42 41  1  0
 42 43  1  0
 42 93  1  1
 43 44  1  0
 43 48  1  0
 43 94  1  1
 44 71  1  0
 45 44  1  0
 46 42  1  0
 46 47  1  0
 47 50  2  0
 47 48  1  0
 48 72  1  0
 49 45  2  0
 51 80  1  0
 51 95  1  0
 51 96  1  0
 52 16  1  0
 52 97  1  0
 52 98  1  0
 53 76  1  0
 53 99  1  0
 53100  1  0
 54  4  1  0
 54 11  1  0
 54101  1  0
 54102  1  0
 55 59  1  0
 56 55  1  0
 56 60  1  0
 56 57  1  0
 56103  1  6
 57 58  1  0
 57 62  1  0
 57104  1  6
 58 68  1  0
 59 63  2  0
 59 58  1  0
 60 61  1  0
 61 64  2  0
 61 62  1  0
 62 67  1  0
 65 55  1  0
 65105  1  0
 65106  1  0
 66 60  1  0
 66107  1  0
 66108  1  0
 67 26  1  0
 67109  1  0
 67110  1  0
 68 21  1  0
 68111  1  0
 68112  1  0
 69 41  1  0
 69113  1  0
 69114  1  0
 70 46  1  0
 70115  1  0
 70116  1  0
 71 34  1  0
 71117  1  0
 71118  1  0
 72 38  1  0
 72119  1  0
 72120  1  0
 73 74  1  0
 73 83  1  0
 74 78  1  0
 74 75  1  0
 74121  1  1
 75 80  1  0
 75122  1  1
 76 77  1  0
 76 75  1  0
 77 73  1  0
 78 84  1  0
 79 78  1  0
 80 79  1  0
 81 77  2  0
 82 79  2  0
 83123  1  0
 83124  1  0
 84125  1  0
 84126  1  0
127128  2  0
128129  1  0
129130  2  0
130131  1  0
131132  1  0
132133  2  0
133127  1  0
127134  1  0
128135  1  0
129136  1  0
130137  1  0
131138  1  0
132139  1  0
133140  1  0
M  CHG  1 131   1
M  END
>  <0_score>  (12) 
-1554.3397726930152

>  <1_score>  (12) 
-1554.339772690159

>  <2_score>  (12) 
-1554.3397726893772

>  <3_score>  (12) 
-1554.3397726881096

>  <4_score>  (12) 
-1554.3397726873966

>  <5_score>  (12) 
-1554.3397726873825

>  <6_score>  (12) 
-1554.3397726858843

>  <7_score>  (12) 
-1554.3397726841263

>  <8_score>  (12) 
-1554.3397726837743

>  <9_score>  (12) 
-1554.3397726836852

>  <10_score>  (12) 
-1554.3397726836067

>  <11_score>  (12) 
-1554.3397726835856

>  <12_score>  (12) 
-1554.3397726828998

>  <13_score>  (12) 
-1554.3397726825483

>  <14_score>  (12) 
-1554.3397726817623

>  <15_score>  (12) 
-1554.3397726817191

>  <16_score>  (12) 
-1554.3397726811709

>  <17_score>  (12) 
-1554.3397726794165

$$$$

     RDKit          3D

140161  0  0  1  0  0  0  0  0999 V2000
    1.4443   -0.5664   -5.0838 N   0  0  0  0  0  0  0  0  0  0  0  0
    1.2353    0.7501   -5.6182 C   0  0  1  0  0  0  0  0  0  0  0  0
   -0.3168    0.8652   -5.7366 C   0  0  1  0  0  0  0  0  0  0  0  0
   -0.7945   -0.4021   -5.2605 N   0  0  0  0  0  0  0  0  0  0  0  0
    0.2758   -1.2989   -5.3118 C   0  0  0  0  0  0  0  0  0  0  0  0
    1.5955    1.8208   -4.7318 N   0  0  0  0  0  0  0  0  0  0  0  0
    0.5260    2.7198   -4.7033 C   0  0  0  0  0  0  0  0  0  0  0  0
   -0.6450    1.9829   -4.8974 N   0  0  0  0  0  0  0  0  0  0  0  0
    0.2242   -2.4448   -5.7257 O   0  0  0  0  0  0  0  0  0  0  0  0
    0.6167    3.9356   -4.7490 O   0  0  0  0  0  0  0  0  0  0  0  0
   -2.9941   -0.3970   -4.4008 N   0  0  0  0  0  0  0  0  0  0  0  0
   -3.6617    0.8737   -4.4277 C   0  0  1  0  0  0  0  0  0  0  0  0
   -4.7221    0.7655   -3.2880 C   0  0  1  0  0  0  0  0  0  0  0  0
   -4.5221   -0.5526   -2.7541 N   0  0  0  0  0  0  0  0  0  0  0  0
   -3.8152   -1.2893   -3.7078 C   0  0  0  0  0  0  0  0  0  0  0  0
   -2.8450    1.9871   -4.0352 N   0  0  0  0  0  0  0  0  0  0  0  0
   -3.5670    2.7273   -3.0959 C   0  0  0  0  0  0  0  0  0  0  0  0
   -4.3785    1.8333   -2.3917 N   0  0  0  0  0  0  0  0  0  0  0  0
   -4.0506   -2.4406   -4.0354 O   0  0  0  0  0  0  0  0  0  0  0  0
   -3.6540    3.9440   -3.0640 O   0  0  0  0  0  0  0  0  0  0  0  0
    5.0953   -1.5568    0.2285 N   0  0  0  0  0  0  0  0  0  0  0  0
    5.7248   -0.4712    0.9263 C   0  0  2  0  0  0  0  0  0  0  0  0
    5.2569   -0.6522    2.4036 C   0  0  2  0  0  0  0  0  0  0  0  0
    4.4250   -1.8218    2.3625 N   0  0  0  0  0  0  0  0  0  0  0  0
    4.7178   -2.5065    1.1807 C   0  0  0  0  0  0  0  0  0  0  0  0
    5.2406    0.8316    0.5665 N   0  0  0  0  0  0  0  0  0  0  0  0
    4.9492    1.5163    1.7487 C   0  0  0  0  0  0  0  0  0  0  0  0
    4.5592    0.5681    2.6974 N   0  0  0  0  0  0  0  0  0  0  0  0
    4.8511   -3.7147    1.0723 O   0  0  0  0  0  0  0  0  0  0  0  0
    5.2142    2.6853    1.9779 O   0  0  0  0  0  0  0  0  0  0  0  0
   -1.6438   -1.8185    4.7166 N   0  0  0  0  0  0  0  0  0  0  0  0
   -2.2252   -0.6521    5.3197 C   0  0  2  0  0  0  0  0  0  0  0  0
   -3.5748   -0.4671    4.5588 C   0  0  2  0  0  0  0  0  0  0  0  0
   -3.5910   -1.5491    3.6154 N   0  0  0  0  0  0  0  0  0  0  0  0
   -2.6671   -2.5017    4.0529 C   0  0  0  0  0  0  0  0  0  0  0  0
   -1.5152    0.5700    5.0664 N   0  0  0  0  0  0  0  0  0  0  0  0
   -2.4489    1.5195    4.6446 C   0  0  0  0  0  0  0  0  0  0  0  0
   -3.4643    0.8379    3.9707 N   0  0  0  0  0  0  0  0  0  0  0  0
   -2.8438   -3.7090    4.0690 O   0  0  0  0  0  0  0  0  0  0  0  0
   -2.4912    2.6847    5.0046 O   0  0  0  0  0  0  0  0  0  0  0  0
   -5.2245   -0.8427   -0.5165 N   0  0  0  0  0  0  0  0  0  0  0  0
   -5.7970    0.3196    0.1026 C   0  0  1  0  0  0  0  0  0  0  0  0
   -5.5808    0.0784    1.6289 C   0  0  1  0  0  0  0  0  0  0  0  0
   -4.9091   -1.1890    1.6874 N   0  0  0  0  0  0  0  0  0  0  0  0
   -5.1149   -1.8321    0.4645 C   0  0  0  0  0  0  0  0  0  0  0  0
   -5.0932    1.5443   -0.1571 N   0  0  0  0  0  0  0  0  0  0  0  0
   -4.9054    2.1881    1.0688 C   0  0  0  0  0  0  0  0  0  0  0  0
   -4.7847    1.1977    2.0462 N   0  0  0  0  0  0  0  0  0  0  0  0
   -5.3871   -3.0126    0.3183 O   0  0  0  0  0  0  0  0  0  0  0  0
   -5.0642    3.3792    1.2785 O   0  0  0  0  0  0  0  0  0  0  0  0
    4.0368   -2.5203    3.5589 C   0  0  0  0  0  0  0  0  0  0  0  0
   -1.9337    2.6211   -4.9506 C   0  0  0  0  0  0  0  0  0  0  0  0
    4.2229    0.9470    4.0442 C   0  0  0  0  0  0  0  0  0  0  0  0
   -2.1488   -0.8355   -5.4792 C   0  0  0  0  0  0  0  0  0  0  0  0
    3.4780   -0.8589   -3.9137 N   0  0  0  0  0  0  0  0  0  0  0  0
    4.3222    0.3009   -3.8541 C   0  0  2  0  0  0  0  0  0  0  0  0
    5.1999    0.0636   -2.5859 C   0  0  2  0  0  0  0  0  0  0  0  0
    4.7449   -1.2013   -2.0820 N   0  0  0  0  0  0  0  0  0  0  0  0
    4.0667   -1.8469   -3.1190 C   0  0  0  0  0  0  0  0  0  0  0  0
    3.6338    1.5294   -3.5732 N   0  0  0  0  0  0  0  0  0  0  0  0
    4.3288    2.1749   -2.5478 C   0  0  0  0  0  0  0  0  0  0  0  0
    4.9003    1.1867   -1.7433 N   0  0  0  0  0  0  0  0  0  0  0  0
    4.1755   -3.0259   -3.4139 O   0  0  0  0  0  0  0  0  0  0  0  0
    4.5905    3.3658   -2.5056 O   0  0  0  0  0  0  0  0  0  0  0  0
    2.7376   -1.1975   -5.1006 C   0  0  0  0  0  0  0  0  0  0  0  0
    2.9556    2.2723   -4.6017 C   0  0  0  0  0  0  0  0  0  0  0  0
    5.7127    1.5214   -0.6045 C   0  0  0  0  0  0  0  0  0  0  0  0
    5.4932   -1.9412   -1.1000 C   0  0  0  0  0  0  0  0  0  0  0  0
   -5.4889   -1.1775   -1.8909 C   0  0  0  0  0  0  0  0  0  0  0  0
   -5.2866    2.2896   -1.3726 C   0  0  0  0  0  0  0  0  0  0  0  0
   -4.7888   -1.9302    2.9152 C   0  0  0  0  0  0  0  0  0  0  0  0
   -4.6066    1.5293    3.4346 C   0  0  0  0  0  0  0  0  0  0  0  0
    0.8369    0.4134    5.2257 N   0  0  0  0  0  0  0  0  0  0  0  0
    1.3432   -0.8848    5.5717 C   0  0  2  0  0  0  0  0  0  0  0  0
    2.7987   -0.8838    5.0096 C   0  0  2  0  0  0  0  0  0  0  0  0
    2.9375    0.4135    4.4097 N   0  0  0  0  0  0  0  0  0  0  0  0
    1.9336    1.2299    4.9367 C   0  0  0  0  0  0  0  0  0  0  0  0
    0.7087   -1.9769    4.8878 N   0  0  0  0  0  0  0  0  0  0  0  0
    1.7208   -2.7976    4.3828 C   0  0  0  0  0  0  0  0  0  0  0  0
    2.8105   -1.9777    4.0795 N   0  0  0  0  0  0  0  0  0  0  0  0
    2.0741    2.3871    5.2978 O   0  0  0  0  0  0  0  0  0  0  0  0
    1.7401   -4.0161    4.4324 O   0  0  0  0  0  0  0  0  0  0  0  0
   -0.3553    0.9472    5.8295 C   0  0  0  0  0  0  0  0  0  0  0  0
   -0.5479   -2.5228    5.3279 C   0  0  0  0  0  0  0  0  0  0  0  0
    1.7222    0.8631   -6.5945 H   0  0  0  0  0  0  0  0  0  0  0  0
   -0.6294    1.0423   -6.7729 H   0  0  0  0  0  0  0  0  0  0  0  0
   -4.1343    1.0525   -5.4014 H   0  0  0  0  0  0  0  0  0  0  0  0
   -5.7413    0.8856   -3.6750 H   0  0  0  0  0  0  0  0  0  0  0  0
    6.8169   -0.5255    0.8408 H   0  0  0  0  0  0  0  0  0  0  0  0
    6.1080   -0.7943    3.0808 H   0  0  0  0  0  0  0  0  0  0  0  0
   -2.3868   -0.8006    6.3943 H   0  0  0  0  0  0  0  0  0  0  0  0
   -4.4321   -0.5230    5.2407 H   0  0  0  0  0  0  0  0  0  0  0  0
   -6.8618    0.4153   -0.1425 H   0  0  0  0  0  0  0  0  0  0  0  0
   -6.5344    0.0465    2.1700 H   0  0  0  0  0  0  0  0  0  0  0  0
    4.8276   -2.4242    4.3117 H   0  0  0  0  0  0  0  0  0  0  0  0
    3.9115   -3.5865    3.3450 H   0  0  0  0  0  0  0  0  0  0  0  0
   -2.3328    2.5543   -5.9691 H   0  0  0  0  0  0  0  0  0  0  0  0
   -1.8345    3.6828   -4.7030 H   0  0  0  0  0  0  0  0  0  0  0  0
    4.2131    2.0381    4.1333 H   0  0  0  0  0  0  0  0  0  0  0  0
    4.9858    0.5657    4.7324 H   0  0  0  0  0  0  0  0  0  0  0  0
   -2.1832   -1.9266   -5.5608 H   0  0  0  0  0  0  0  0  0  0  0  0
   -2.5171   -0.4205   -6.4243 H   0  0  0  0  0  0  0  0  0  0  0  0
    4.9379    0.3904   -4.7577 H   0  0  0  0  0  0  0  0  0  0  0  0
    6.2673    0.0301   -2.8363 H   0  0  0  0  0  0  0  0  0  0  0  0
    3.2939   -0.8682   -5.9857 H   0  0  0  0  0  0  0  0  0  0  0  0
    2.6199   -2.2835   -5.1680 H   0  0  0  0  0  0  0  0  0  0  0  0
    2.9726    3.3400   -4.3626 H   0  0  0  0  0  0  0  0  0  0  0  0
    3.4787    2.1378   -5.5553 H   0  0  0  0  0  0  0  0  0  0  0  0
    5.6915    2.6026   -0.4355 H   0  0  0  0  0  0  0  0  0  0  0  0
    6.7529    1.2377   -0.8015 H   0  0  0  0  0  0  0  0  0  0  0  0
    6.5632   -1.7444   -1.2317 H   0  0  0  0  0  0  0  0  0  0  0  0
    5.3343   -3.0147   -1.2410 H   0  0  0  0  0  0  0  0  0  0  0  0
   -5.4591   -2.2637   -2.0226 H   0  0  0  0  0  0  0  0  0  0  0  0
   -6.4946   -0.8383   -2.1632 H   0  0  0  0  0  0  0  0  0  0  0  0
   -6.3187    2.1623   -1.7185 H   0  0  0  0  0  0  0  0  0  0  0  0
   -5.1296    3.3563   -1.1841 H   0  0  0  0  0  0  0  0  0  0  0  0
   -4.7711   -3.0037    2.7028 H   0  0  0  0  0  0  0  0  0  0  0  0
   -5.6609   -1.7324    3.5487 H   0  0  0  0  0  0  0  0  0  0  0  0
   -5.5034    1.2443    3.9964 H   0  0  0  0  0  0  0  0  0  0  0  0
   -4.4758    2.6102    3.5466 H   0  0  0  0  0  0  0  0  0  0  0  0
    1.3324   -1.0381    6.6577 H   0  0  0  0  0  0  0  0  0  0  0  0
    3.5374   -1.0328    5.8064 H   0  0  0  0  0  0  0  0  0  0  0  0
   -0.4505    0.5639    6.8517 H   0  0  0  0  0  0  0  0  0  0  0  0
   -0.2870    2.0378    5.8899 H   0  0  0  0  0  0  0  0  0  0  0  0
   -0.6006   -3.5861    5.0737 H   0  0  0  0  0  0  0  0  0  0  0  0
   -0.6211   -2.4385    6.4182 H   0  0  0  0  0  0  0  0  0  0  0  0
   -0.1317    2.8665   -0.1070 C   0  0  0  0  0  0  0  0  0  0  0  0
   -0.5647    2.1712   -1.1657 C   0  0  0  0  0  0  0  0  0  0  0  0
   -0.5724    0.8448   -1.3466 C   0  0  0  0  0  0  0  0  0  0  0  0
   -0.1491   -0.1136   -0.5135 C   0  0  0  0  0  0  0  0  0  0  0  0
    0.3864    0.0174    0.7063 C   0  0  0  0  0  3  0  0  0  0  0  0
    0.6310    1.1394    1.3942 C   0  0  0  0  0  0  0  0  0  0  0  0
    0.4004    2.4074    1.0323 C   0  0  0  0  0  0  0  0  0  0  0  0
   -0.2249    3.9515   -0.1827 H   0  0  0  0  0  0  0  0  0  0  0  0
   -0.9641    2.7640   -1.9904 H   0  0  0  0  0  0  0  0  0  0  0  0
   -0.9774    0.4992   -2.2994 H   0  0  0  0  0  0  0  0  0  0  0  0
   -0.2547   -1.1374   -0.8768 H   0  0  0  0  0  0  0  0  0  0  0  0
    0.6599   -0.9135    1.2060 H   0  0  0  0  0  0  0  0  0  0  0  0
    1.0775    1.0023    2.3807 H   0  0  0  0  0  0  0  0  0  0  0  0
    0.6838    3.1674    1.7627 H   0  0  0  0  0  0  0  0  0  0  0  0
  1  5  1  0
  1 65  1  0
  2  1  1  0
  2  6  1  0
  2  3  1  0
  2 85  1  6
  3  4  1  0
  3  8  1  0
  3 86  1  6
  4  5  1  0
  5  9  2  0
  6 66  1  0
  6  7  1  0
  7 10  2  0
  8 52  1  0
  8  7  1  0
 11 15  1  0
 12 11  1  0
 12 16  1  0
 12 13  1  0
 12 87  1  6
 13 14  1  0
 13 18  1  0
 13 88  1  6
 14 69  1  0
 15 19  2  0
 15 14  1  0
 16 17  1  0
 17 18  1  0
 17 20  2  0
 18 70  1  0
 21 25  1  0
 22 21  1  0
 22 23  1  0
 22 89  1  1
 23 24  1  0
 23 28  1  0
 23 90  1  1
 24 51  1  0
 25 24  1  0
 26 22  1  0
 26 27  1  0
 27 28  1  0
 28 53  1  0
 29 25  2  0
 30 27  2  0
 31 84  1  0
 32 31  1  0
 32 33  1  0
 32 91  1  1
 33 34  1  0
 33 92  1  1
 34 35  1  0
 35 31  1  0
 36 32  1  0
 36 83  1  0
 37 36  1  0
 38 37  1  0
 38 33  1  0
 39 35  2  0
 40 37  2  0
 41 45  1  0
 42 41  1  0
 42 43  1  0
 42 93  1  1
 43 44  1  0
 43 48  1  0
 43 94  1  1
 44 71  1  0
 45 44  1  0
 46 42  1  0
 46 47  1  0
 47 50  2  0
 47 48  1  0
 48 72  1  0
 49 45  2  0
 51 80  1  0
 51 95  1  0
 51 96  1  0
 52 16  1  0
 52 97  1  0
 52 98  1  0
 53 76  1  0
 53 99  1  0
 53100  1  0
 54  4  1  0
 54 11  1  0
 54101  1  0
 54102  1  0
 55 59  1  0
 56 55  1  0
 56 60  1  0
 56 57  1  0
 56103  1  6
 57 58  1  0
 57 62  1  0
 57104  1  6
 58 68  1  0
 59 63  2  0
 59 58  1  0
 60 61  1  0
 61 64  2  0
 61 62  1  0
 62 67  1  0
 65 55  1  0
 65105  1  0
 65106  1  0
 66 60  1  0
 66107  1  0
 66108  1  0
 67 26  1  0
 67109  1  0
 67110  1  0
 68 21  1  0
 68111  1  0
 68112  1  0
 69 41  1  0
 69113  1  0
 69114  1  0
 70 46  1  0
 70115  1  0
 70116  1  0
 71 34  1  0
 71117  1  0
 71118  1  0
 72 38  1  0
 72119  1  0
 72120  1  0
 73 74  1  0
 73 83  1  0
 74 78  1  0
 74 75  1  0
 74121  1  1
 75 80  1  0
 75122  1  1
 76 77  1  0
 76 75  1  0
 77 73  1  0
 78 84  1  0
 79 78  1  0
 80 79  1  0
 81 77  2  0
 82 79  2  0
 83123  1  0
 83124  1  0
 84125  1  0
 84126  1  0
127128  2  0
128129  1  0
129130  2  0
130131  1  0
131132  1  0
132133  2  0
133127  1  0
127134  1  0
128135  1  0
129136  1  0
130137  1  0
131138  1  0
132139  1  0
133140  1  0
M  CHG  1 131   1
M  END
>  <0_score>  (13) 
-1554.3397726930152

>  <1_score>  (13) 
-1554.339772690159

>  <2_score>  (13) 
-1554.3397726893772

>  <3_score>  (13) 
-1554.3397726881096

>  <4_score>  (13) 
-1554.3397726873966

>  <5_score>  (13) 
-1554.3397726873825

>  <6_score>  (13) 
-1554.3397726858843

>  <7_score>  (13) 
-1554.3397726841263

>  <8_score>  (13) 
-1554.3397726837743

>  <9_score>  (13) 
-1554.3397726836852

>  <10_score>  (13) 
-1554.3397726836067

>  <11_score>  (13) 
-1554.3397726835856

>  <12_score>  (13) 
-1554.3397726828998

>  <13_score>  (13) 
-1554.3397726825483

>  <14_score>  (13) 
-1554.3397726817623

>  <15_score>  (13) 
-1554.3397726817191

>  <16_score>  (13) 
-1554.3397726811709

>  <17_score>  (13) 
-1554.3397726794165

$$$$

     RDKit          3D

140161  0  0  1  0  0  0  0  0999 V2000
    1.4443   -0.5664   -5.0838 N   0  0  0  0  0  0  0  0  0  0  0  0
    1.2353    0.7501   -5.6182 C   0  0  1  0  0  0  0  0  0  0  0  0
   -0.3168    0.8652   -5.7366 C   0  0  1  0  0  0  0  0  0  0  0  0
   -0.7945   -0.4021   -5.2605 N   0  0  0  0  0  0  0  0  0  0  0  0
    0.2758   -1.2989   -5.3118 C   0  0  0  0  0  0  0  0  0  0  0  0
    1.5955    1.8208   -4.7318 N   0  0  0  0  0  0  0  0  0  0  0  0
    0.5260    2.7198   -4.7033 C   0  0  0  0  0  0  0  0  0  0  0  0
   -0.6450    1.9829   -4.8974 N   0  0  0  0  0  0  0  0  0  0  0  0
    0.2242   -2.4448   -5.7257 O   0  0  0  0  0  0  0  0  0  0  0  0
    0.6167    3.9356   -4.7490 O   0  0  0  0  0  0  0  0  0  0  0  0
   -2.9941   -0.3970   -4.4008 N   0  0  0  0  0  0  0  0  0  0  0  0
   -3.6617    0.8737   -4.4277 C   0  0  1  0  0  0  0  0  0  0  0  0
   -4.7221    0.7655   -3.2880 C   0  0  1  0  0  0  0  0  0  0  0  0
   -4.5221   -0.5526   -2.7541 N   0  0  0  0  0  0  0  0  0  0  0  0
   -3.8152   -1.2893   -3.7078 C   0  0  0  0  0  0  0  0  0  0  0  0
   -2.8450    1.9871   -4.0352 N   0  0  0  0  0  0  0  0  0  0  0  0
   -3.5670    2.7273   -3.0959 C   0  0  0  0  0  0  0  0  0  0  0  0
   -4.3785    1.8333   -2.3917 N   0  0  0  0  0  0  0  0  0  0  0  0
   -4.0506   -2.4406   -4.0354 O   0  0  0  0  0  0  0  0  0  0  0  0
   -3.6540    3.9440   -3.0640 O   0  0  0  0  0  0  0  0  0  0  0  0
    5.0953   -1.5568    0.2285 N   0  0  0  0  0  0  0  0  0  0  0  0
    5.7248   -0.4712    0.9263 C   0  0  2  0  0  0  0  0  0  0  0  0
    5.2569   -0.6522    2.4036 C   0  0  2  0  0  0  0  0  0  0  0  0
    4.4250   -1.8218    2.3625 N   0  0  0  0  0  0  0  0  0  0  0  0
    4.7178   -2.5065    1.1807 C   0  0  0  0  0  0  0  0  0  0  0  0
    5.2406    0.8316    0.5665 N   0  0  0  0  0  0  0  0  0  0  0  0
    4.9492    1.5163    1.7487 C   0  0  0  0  0  0  0  0  0  0  0  0
    4.5592    0.5681    2.6974 N   0  0  0  0  0  0  0  0  0  0  0  0
    4.8511   -3.7147    1.0723 O   0  0  0  0  0  0  0  0  0  0  0  0
    5.2142    2.6853    1.9779 O   0  0  0  0  0  0  0  0  0  0  0  0
   -1.6438   -1.8185    4.7166 N   0  0  0  0  0  0  0  0  0  0  0  0
   -2.2252   -0.6521    5.3197 C   0  0  2  0  0  0  0  0  0  0  0  0
   -3.5748   -0.4671    4.5588 C   0  0  2  0  0  0  0  0  0  0  0  0
   -3.5910   -1.5491    3.6154 N   0  0  0  0  0  0  0  0  0  0  0  0
   -2.6671   -2.5017    4.0529 C   0  0  0  0  0  0  0  0  0  0  0  0
   -1.5152    0.5700    5.0664 N   0  0  0  0  0  0  0  0  0  0  0  0
   -2.4489    1.5195    4.6446 C   0  0  0  0  0  0  0  0  0  0  0  0
   -3.4643    0.8379    3.9707 N   0  0  0  0  0  0  0  0  0  0  0  0
   -2.8438   -3.7090    4.0690 O   0  0  0  0  0  0  0  0  0  0  0  0
   -2.4912    2.6847    5.0046 O   0  0  0  0  0  0  0  0  0  0  0  0
   -5.2245   -0.8427   -0.5165 N   0  0  0  0  0  0  0  0  0  0  0  0
   -5.7970    0.3196    0.1026 C   0  0  1  0  0  0  0  0  0  0  0  0
   -5.5808    0.0784    1.6289 C   0  0  1  0  0  0  0  0  0  0  0  0
   -4.9091   -1.1890    1.6874 N   0  0  0  0  0  0  0  0  0  0  0  0
   -5.1149   -1.8321    0.4645 C   0  0  0  0  0  0  0  0  0  0  0  0
   -5.0932    1.5443   -0.1571 N   0  0  0  0  0  0  0  0  0  0  0  0
   -4.9054    2.1881    1.0688 C   0  0  0  0  0  0  0  0  0  0  0  0
   -4.7847    1.1977    2.0462 N   0  0  0  0  0  0  0  0  0  0  0  0
   -5.3871   -3.0126    0.3183 O   0  0  0  0  0  0  0  0  0  0  0  0
   -5.0642    3.3792    1.2785 O   0  0  0  0  0  0  0  0  0  0  0  0
    4.0368   -2.5203    3.5589 C   0  0  0  0  0  0  0  0  0  0  0  0
   -1.9337    2.6211   -4.9506 C   0  0  0  0  0  0  0  0  0  0  0  0
    4.2229    0.9470    4.0442 C   0  0  0  0  0  0  0  0  0  0  0  0
   -2.1488   -0.8355   -5.4792 C   0  0  0  0  0  0  0  0  0  0  0  0
    3.4780   -0.8589   -3.9137 N   0  0  0  0  0  0  0  0  0  0  0  0
    4.3222    0.3009   -3.8541 C   0  0  2  0  0  0  0  0  0  0  0  0
    5.1999    0.0636   -2.5859 C   0  0  2  0  0  0  0  0  0  0  0  0
    4.7449   -1.2013   -2.0820 N   0  0  0  0  0  0  0  0  0  0  0  0
    4.0667   -1.8469   -3.1190 C   0  0  0  0  0  0  0  0  0  0  0  0
    3.6338    1.5294   -3.5732 N   0  0  0  0  0  0  0  0  0  0  0  0
    4.3288    2.1749   -2.5478 C   0  0  0  0  0  0  0  0  0  0  0  0
    4.9003    1.1867   -1.7433 N   0  0  0  0  0  0  0  0  0  0  0  0
    4.1755   -3.0259   -3.4139 O   0  0  0  0  0  0  0  0  0  0  0  0
    4.5905    3.3658   -2.5056 O   0  0  0  0  0  0  0  0  0  0  0  0
    2.7376   -1.1975   -5.1006 C   0  0  0  0  0  0  0  0  0  0  0  0
    2.9556    2.2723   -4.6017 C   0  0  0  0  0  0  0  0  0  0  0  0
    5.7127    1.5214   -0.6045 C   0  0  0  0  0  0  0  0  0  0  0  0
    5.4932   -1.9412   -1.1000 C   0  0  0  0  0  0  0  0  0  0  0  0
   -5.4889   -1.1775   -1.8909 C   0  0  0  0  0  0  0  0  0  0  0  0
   -5.2866    2.2896   -1.3726 C   0  0  0  0  0  0  0  0  0  0  0  0
   -4.7888   -1.9302    2.9152 C   0  0  0  0  0  0  0  0  0  0  0  0
   -4.6066    1.5293    3.4346 C   0  0  0  0  0  0  0  0  0  0  0  0
    0.8369    0.4134    5.2257 N   0  0  0  0  0  0  0  0  0  0  0  0
    1.3432   -0.8848    5.5717 C   0  0  2  0  0  0  0  0  0  0  0  0
    2.7987   -0.8838    5.0096 C   0  0  2  0  0  0  0  0  0  0  0  0
    2.9375    0.4135    4.4097 N   0  0  0  0  0  0  0  0  0  0  0  0
    1.9336    1.2299    4.9367 C   0  0  0  0  0  0  0  0  0  0  0  0
    0.7087   -1.9769    4.8878 N   0  0  0  0  0  0  0  0  0  0  0  0
    1.7208   -2.7976    4.3828 C   0  0  0  0  0  0  0  0  0  0  0  0
    2.8105   -1.9777    4.0795 N   0  0  0  0  0  0  0  0  0  0  0  0
    2.0741    2.3871    5.2978 O   0  0  0  0  0  0  0  0  0  0  0  0
    1.7401   -4.0161    4.4324 O   0  0  0  0  0  0  0  0  0  0  0  0
   -0.3553    0.9472    5.8295 C   0  0  0  0  0  0  0  0  0  0  0  0
   -0.5479   -2.5228    5.3279 C   0  0  0  0  0  0  0  0  0  0  0  0
    1.7222    0.8631   -6.5945 H   0  0  0  0  0  0  0  0  0  0  0  0
   -0.6294    1.0423   -6.7729 H   0  0  0  0  0  0  0  0  0  0  0  0
   -4.1343    1.0525   -5.4014 H   0  0  0  0  0  0  0  0  0  0  0  0
   -5.7413    0.8856   -3.6750 H   0  0  0  0  0  0  0  0  0  0  0  0
    6.8169   -0.5255    0.8408 H   0  0  0  0  0  0  0  0  0  0  0  0
    6.1080   -0.7943    3.0808 H   0  0  0  0  0  0  0  0  0  0  0  0
   -2.3868   -0.8006    6.3943 H   0  0  0  0  0  0  0  0  0  0  0  0
   -4.4321   -0.5230    5.2407 H   0  0  0  0  0  0  0  0  0  0  0  0
   -6.8618    0.4153   -0.1425 H   0  0  0  0  0  0  0  0  0  0  0  0
   -6.5344    0.0465    2.1700 H   0  0  0  0  0  0  0  0  0  0  0  0
    4.8276   -2.4242    4.3117 H   0  0  0  0  0  0  0  0  0  0  0  0
    3.9115   -3.5865    3.3450 H   0  0  0  0  0  0  0  0  0  0  0  0
   -2.3328    2.5543   -5.9691 H   0  0  0  0  0  0  0  0  0  0  0  0
   -1.8345    3.6828   -4.7030 H   0  0  0  0  0  0  0  0  0  0  0  0
    4.2131    2.0381    4.1333 H   0  0  0  0  0  0  0  0  0  0  0  0
    4.9858    0.5657    4.7324 H   0  0  0  0  0  0  0  0  0  0  0  0
   -2.1832   -1.9266   -5.5608 H   0  0  0  0  0  0  0  0  0  0  0  0
   -2.5171   -0.4205   -6.4243 H   0  0  0  0  0  0  0  0  0  0  0  0
    4.9379    0.3904   -4.7577 H   0  0  0  0  0  0  0  0  0  0  0  0
    6.2673    0.0301   -2.8363 H   0  0  0  0  0  0  0  0  0  0  0  0
    3.2939   -0.8682   -5.9857 H   0  0  0  0  0  0  0  0  0  0  0  0
    2.6199   -2.2835   -5.1680 H   0  0  0  0  0  0  0  0  0  0  0  0
    2.9726    3.3400   -4.3626 H   0  0  0  0  0  0  0  0  0  0  0  0
    3.4787    2.1378   -5.5553 H   0  0  0  0  0  0  0  0  0  0  0  0
    5.6915    2.6026   -0.4355 H   0  0  0  0  0  0  0  0  0  0  0  0
    6.7529    1.2377   -0.8015 H   0  0  0  0  0  0  0  0  0  0  0  0
    6.5632   -1.7444   -1.2317 H   0  0  0  0  0  0  0  0  0  0  0  0
    5.3343   -3.0147   -1.2410 H   0  0  0  0  0  0  0  0  0  0  0  0
   -5.4591   -2.2637   -2.0226 H   0  0  0  0  0  0  0  0  0  0  0  0
   -6.4946   -0.8383   -2.1632 H   0  0  0  0  0  0  0  0  0  0  0  0
   -6.3187    2.1623   -1.7185 H   0  0  0  0  0  0  0  0  0  0  0  0
   -5.1296    3.3563   -1.1841 H   0  0  0  0  0  0  0  0  0  0  0  0
   -4.7711   -3.0037    2.7028 H   0  0  0  0  0  0  0  0  0  0  0  0
   -5.6609   -1.7324    3.5487 H   0  0  0  0  0  0  0  0  0  0  0  0
   -5.5034    1.2443    3.9964 H   0  0  0  0  0  0  0  0  0  0  0  0
   -4.4758    2.6102    3.5466 H   0  0  0  0  0  0  0  0  0  0  0  0
    1.3324   -1.0381    6.6577 H   0  0  0  0  0  0  0  0  0  0  0  0
    3.5374   -1.0328    5.8064 H   0  0  0  0  0  0  0  0  0  0  0  0
   -0.4505    0.5639    6.8517 H   0  0  0  0  0  0  0  0  0  0  0  0
   -0.2870    2.0378    5.8899 H   0  0  0  0  0  0  0  0  0  0  0  0
   -0.6006   -3.5861    5.0737 H   0  0  0  0  0  0  0  0  0  0  0  0
   -0.6211   -2.4385    6.4182 H   0  0  0  0  0  0  0  0  0  0  0  0
   -0.1317   -0.1595   -0.3654 C   0  0  0  0  0  0  0  0  0  0  0  0
   -0.5647    0.1800    0.8549 C   0  0  0  0  0  0  0  0  0  0  0  0
   -0.5724    1.3881    1.4314 C   0  0  0  0  0  0  0  0  0  0  0  0
   -0.1491    2.5549    0.9301 C   0  0  0  0  0  0  0  0  0  0  0  0
    0.3864    2.8019   -0.2716 C   0  0  0  0  0  3  0  0  0  0  0  0
    0.6310    1.9430   -1.2687 C   0  0  0  0  0  0  0  0  0  0  0  0
    0.4004    0.6250   -1.3106 C   0  0  0  0  0  0  0  0  0  0  0  0
   -0.2249   -1.2159   -0.6241 H   0  0  0  0  0  0  0  0  0  0  0  0
   -0.9641   -0.6359    1.4597 H   0  0  0  0  0  0  0  0  0  0  0  0
   -0.9774    1.4269    2.4442 H   0  0  0  0  0  0  0  0  0  0  0  0
   -0.2547    3.4192    1.5882 H   0  0  0  0  0  0  0  0  0  0  0  0
    0.6599    3.8409   -0.4638 H   0  0  0  0  0  0  0  0  0  0  0  0
    1.0775    2.3743   -2.1665 H   0  0  0  0  0  0  0  0  0  0  0  0
    0.6838    0.1238   -2.2379 H   0  0  0  0  0  0  0  0  0  0  0  0
  1  5  1  0
  1 65  1  0
  2  1  1  0
  2  6  1  0
  2  3  1  0
  2 85  1  6
  3  4  1  0
  3  8  1  0
  3 86  1  6
  4  5  1  0
  5  9  2  0
  6 66  1  0
  6  7  1  0
  7 10  2  0
  8 52  1  0
  8  7  1  0
 11 15  1  0
 12 11  1  0
 12 16  1  0
 12 13  1  0
 12 87  1  6
 13 14  1  0
 13 18  1  0
 13 88  1  6
 14 69  1  0
 15 19  2  0
 15 14  1  0
 16 17  1  0
 17 18  1  0
 17 20  2  0
 18 70  1  0
 21 25  1  0
 22 21  1  0
 22 23  1  0
 22 89  1  1
 23 24  1  0
 23 28  1  0
 23 90  1  1
 24 51  1  0
 25 24  1  0
 26 22  1  0
 26 27  1  0
 27 28  1  0
 28 53  1  0
 29 25  2  0
 30 27  2  0
 31 84  1  0
 32 31  1  0
 32 33  1  0
 32 91  1  1
 33 34  1  0
 33 92  1  1
 34 35  1  0
 35 31  1  0
 36 32  1  0
 36 83  1  0
 37 36  1  0
 38 37  1  0
 38 33  1  0
 39 35  2  0
 40 37  2  0
 41 45  1  0
 42 41  1  0
 42 43  1  0
 42 93  1  1
 43 44  1  0
 43 48  1  0
 43 94  1  1
 44 71  1  0
 45 44  1  0
 46 42  1  0
 46 47  1  0
 47 50  2  0
 47 48  1  0
 48 72  1  0
 49 45  2  0
 51 80  1  0
 51 95  1  0
 51 96  1  0
 52 16  1  0
 52 97  1  0
 52 98  1  0
 53 76  1  0
 53 99  1  0
 53100  1  0
 54  4  1  0
 54 11  1  0
 54101  1  0
 54102  1  0
 55 59  1  0
 56 55  1  0
 56 60  1  0
 56 57  1  0
 56103  1  6
 57 58  1  0
 57 62  1  0
 57104  1  6
 58 68  1  0
 59 63  2  0
 59 58  1  0
 60 61  1  0
 61 64  2  0
 61 62  1  0
 62 67  1  0
 65 55  1  0
 65105  1  0
 65106  1  0
 66 60  1  0
 66107  1  0
 66108  1  0
 67 26  1  0
 67109  1  0
 67110  1  0
 68 21  1  0
 68111  1  0
 68112  1  0
 69 41  1  0
 69113  1  0
 69114  1  0
 70 46  1  0
 70115  1  0
 70116  1  0
 71 34  1  0
 71117  1  0
 71118  1  0
 72 38  1  0
 72119  1  0
 72120  1  0
 73 74  1  0
 73 83  1  0
 74 78  1  0
 74 75  1  0
 74121  1  1
 75 80  1  0
 75122  1  1
 76 77  1  0
 76 75  1  0
 77 73  1  0
 78 84  1  0
 79 78  1  0
 80 79  1  0
 81 77  2  0
 82 79  2  0
 83123  1  0
 83124  1  0
 84125  1  0
 84126  1  0
127128  2  0
128129  1  0
129130  2  0
130131  1  0
131132  1  0
132133  2  0
133127  1  0
127134  1  0
128135  1  0
129136  1  0
130137  1  0
131138  1  0
132139  1  0
133140  1  0
M  CHG  1 131   1
M  END
>  <0_score>  (14) 
-1554.3397726930152

>  <1_score>  (14) 
-1554.339772690159

>  <2_score>  (14) 
-1554.3397726893772

>  <3_score>  (14) 
-1554.3397726881096

>  <4_score>  (14) 
-1554.3397726873966

>  <5_score>  (14) 
-1554.3397726873825

>  <6_score>  (14) 
-1554.3397726858843

>  <7_score>  (14) 
-1554.3397726841263

>  <8_score>  (14) 
-1554.3397726837743

>  <9_score>  (14) 
-1554.3397726836852

>  <10_score>  (14) 
-1554.3397726836067

>  <11_score>  (14) 
-1554.3397726835856

>  <12_score>  (14) 
-1554.3397726828998

>  <13_score>  (14) 
-1554.3397726825483

>  <14_score>  (14) 
-1554.3397726817623

>  <15_score>  (14) 
-1554.3397726817191

>  <16_score>  (14) 
-1554.3397726811709

>  <17_score>  (14) 
-1554.3397726794165

$$$$

     RDKit          3D

140161  0  0  1  0  0  0  0  0999 V2000
    1.4443   -0.5664   -5.0838 N   0  0  0  0  0  0  0  0  0  0  0  0
    1.2353    0.7501   -5.6182 C   0  0  1  0  0  0  0  0  0  0  0  0
   -0.3168    0.8652   -5.7366 C   0  0  1  0  0  0  0  0  0  0  0  0
   -0.7945   -0.4021   -5.2605 N   0  0  0  0  0  0  0  0  0  0  0  0
    0.2758   -1.2989   -5.3118 C   0  0  0  0  0  0  0  0  0  0  0  0
    1.5955    1.8208   -4.7318 N   0  0  0  0  0  0  0  0  0  0  0  0
    0.5260    2.7198   -4.7033 C   0  0  0  0  0  0  0  0  0  0  0  0
   -0.6450    1.9829   -4.8974 N   0  0  0  0  0  0  0  0  0  0  0  0
    0.2242   -2.4448   -5.7257 O   0  0  0  0  0  0  0  0  0  0  0  0
    0.6167    3.9356   -4.7490 O   0  0  0  0  0  0  0  0  0  0  0  0
   -2.9941   -0.3970   -4.4008 N   0  0  0  0  0  0  0  0  0  0  0  0
   -3.6617    0.8737   -4.4277 C   0  0  1  0  0  0  0  0  0  0  0  0
   -4.7221    0.7655   -3.2880 C   0  0  1  0  0  0  0  0  0  0  0  0
   -4.5221   -0.5526   -2.7541 N   0  0  0  0  0  0  0  0  0  0  0  0
   -3.8152   -1.2893   -3.7078 C   0  0  0  0  0  0  0  0  0  0  0  0
   -2.8450    1.9871   -4.0352 N   0  0  0  0  0  0  0  0  0  0  0  0
   -3.5670    2.7273   -3.0959 C   0  0  0  0  0  0  0  0  0  0  0  0
   -4.3785    1.8333   -2.3917 N   0  0  0  0  0  0  0  0  0  0  0  0
   -4.0506   -2.4406   -4.0354 O   0  0  0  0  0  0  0  0  0  0  0  0
   -3.6540    3.9440   -3.0640 O   0  0  0  0  0  0  0  0  0  0  0  0
    5.0953   -1.5568    0.2285 N   0  0  0  0  0  0  0  0  0  0  0  0
    5.7248   -0.4712    0.9263 C   0  0  2  0  0  0  0  0  0  0  0  0
    5.2569   -0.6522    2.4036 C   0  0  2  0  0  0  0  0  0  0  0  0
    4.4250   -1.8218    2.3625 N   0  0  0  0  0  0  0  0  0  0  0  0
    4.7178   -2.5065    1.1807 C   0  0  0  0  0  0  0  0  0  0  0  0
    5.2406    0.8316    0.5665 N   0  0  0  0  0  0  0  0  0  0  0  0
    4.9492    1.5163    1.7487 C   0  0  0  0  0  0  0  0  0  0  0  0
    4.5592    0.5681    2.6974 N   0  0  0  0  0  0  0  0  0  0  0  0
    4.8511   -3.7147    1.0723 O   0  0  0  0  0  0  0  0  0  0  0  0
    5.2142    2.6853    1.9779 O   0  0  0  0  0  0  0  0  0  0  0  0
   -1.6438   -1.8185    4.7166 N   0  0  0  0  0  0  0  0  0  0  0  0
   -2.2252   -0.6521    5.3197 C   0  0  2  0  0  0  0  0  0  0  0  0
   -3.5748   -0.4671    4.5588 C   0  0  2  0  0  0  0  0  0  0  0  0
   -3.5910   -1.5491    3.6154 N   0  0  0  0  0  0  0  0  0  0  0  0
   -2.6671   -2.5017    4.0529 C   0  0  0  0  0  0  0  0  0  0  0  0
   -1.5152    0.5700    5.0664 N   0  0  0  0  0  0  0  0  0  0  0  0
   -2.4489    1.5195    4.6446 C   0  0  0  0  0  0  0  0  0  0  0  0
   -3.4643    0.8379    3.9707 N   0  0  0  0  0  0  0  0  0  0  0  0
   -2.8438   -3.7090    4.0690 O   0  0  0  0  0  0  0  0  0  0  0  0
   -2.4912    2.6847    5.0046 O   0  0  0  0  0  0  0  0  0  0  0  0
   -5.2245   -0.8427   -0.5165 N   0  0  0  0  0  0  0  0  0  0  0  0
   -5.7970    0.3196    0.1026 C   0  0  1  0  0  0  0  0  0  0  0  0
   -5.5808    0.0784    1.6289 C   0  0  1  0  0  0  0  0  0  0  0  0
   -4.9091   -1.1890    1.6874 N   0  0  0  0  0  0  0  0  0  0  0  0
   -5.1149   -1.8321    0.4645 C   0  0  0  0  0  0  0  0  0  0  0  0
   -5.0932    1.5443   -0.1571 N   0  0  0  0  0  0  0  0  0  0  0  0
   -4.9054    2.1881    1.0688 C   0  0  0  0  0  0  0  0  0  0  0  0
   -4.7847    1.1977    2.0462 N   0  0  0  0  0  0  0  0  0  0  0  0
   -5.3871   -3.0126    0.3183 O   0  0  0  0  0  0  0  0  0  0  0  0
   -5.0642    3.3792    1.2785 O   0  0  0  0  0  0  0  0  0  0  0  0
    4.0368   -2.5203    3.5589 C   0  0  0  0  0  0  0  0  0  0  0  0
   -1.9337    2.6211   -4.9506 C   0  0  0  0  0  0  0  0  0  0  0  0
    4.2229    0.9470    4.0442 C   0  0  0  0  0  0  0  0  0  0  0  0
   -2.1488   -0.8355   -5.4792 C   0  0  0  0  0  0  0  0  0  0  0  0
    3.4780   -0.8589   -3.9137 N   0  0  0  0  0  0  0  0  0  0  0  0
    4.3222    0.3009   -3.8541 C   0  0  2  0  0  0  0  0  0  0  0  0
    5.1999    0.0636   -2.5859 C   0  0  2  0  0  0  0  0  0  0  0  0
    4.7449   -1.2013   -2.0820 N   0  0  0  0  0  0  0  0  0  0  0  0
    4.0667   -1.8469   -3.1190 C   0  0  0  0  0  0  0  0  0  0  0  0
    3.6338    1.5294   -3.5732 N   0  0  0  0  0  0  0  0  0  0  0  0
    4.3288    2.1749   -2.5478 C   0  0  0  0  0  0  0  0  0  0  0  0
    4.9003    1.1867   -1.7433 N   0  0  0  0  0  0  0  0  0  0  0  0
    4.1755   -3.0259   -3.4139 O   0  0  0  0  0  0  0  0  0  0  0  0
    4.5905    3.3658   -2.5056 O   0  0  0  0  0  0  0  0  0  0  0  0
    2.7376   -1.1975   -5.1006 C   0  0  0  0  0  0  0  0  0  0  0  0
    2.9556    2.2723   -4.6017 C   0  0  0  0  0  0  0  0  0  0  0  0
    5.7127    1.5214   -0.6045 C   0  0  0  0  0  0  0  0  0  0  0  0
    5.4932   -1.9412   -1.1000 C   0  0  0  0  0  0  0  0  0  0  0  0
   -5.4889   -1.1775   -1.8909 C   0  0  0  0  0  0  0  0  0  0  0  0
   -5.2866    2.2896   -1.3726 C   0  0  0  0  0  0  0  0  0  0  0  0
   -4.7888   -1.9302    2.9152 C   0  0  0  0  0  0  0  0  0  0  0  0
   -4.6066    1.5293    3.4346 C   0  0  0  0  0  0  0  0  0  0  0  0
    0.8369    0.4134    5.2257 N   0  0  0  0  0  0  0  0  0  0  0  0
    1.3432   -0.8848    5.5717 C   0  0  2  0  0  0  0  0  0  0  0  0
    2.7987   -0.8838    5.0096 C   0  0  2  0  0  0  0  0  0  0  0  0
    2.9375    0.4135    4.4097 N   0  0  0  0  0  0  0  0  0  0  0  0
    1.9336    1.2299    4.9367 C   0  0  0  0  0  0  0  0  0  0  0  0
    0.7087   -1.9769    4.8878 N   0  0  0  0  0  0  0  0  0  0  0  0
    1.7208   -2.7976    4.3828 C   0  0  0  0  0  0  0  0  0  0  0  0
    2.8105   -1.9777    4.0795 N   0  0  0  0  0  0  0  0  0  0  0  0
    2.0741    2.3871    5.2978 O   0  0  0  0  0  0  0  0  0  0  0  0
    1.7401   -4.0161    4.4324 O   0  0  0  0  0  0  0  0  0  0  0  0
   -0.3553    0.9472    5.8295 C   0  0  0  0  0  0  0  0  0  0  0  0
   -0.5479   -2.5228    5.3279 C   0  0  0  0  0  0  0  0  0  0  0  0
    1.7222    0.8631   -6.5945 H   0  0  0  0  0  0  0  0  0  0  0  0
   -0.6294    1.0423   -6.7729 H   0  0  0  0  0  0  0  0  0  0  0  0
   -4.1343    1.0525   -5.4014 H   0  0  0  0  0  0  0  0  0  0  0  0
   -5.7413    0.8856   -3.6750 H   0  0  0  0  0  0  0  0  0  0  0  0
    6.8169   -0.5255    0.8408 H   0  0  0  0  0  0  0  0  0  0  0  0
    6.1080   -0.7943    3.0808 H   0  0  0  0  0  0  0  0  0  0  0  0
   -2.3868   -0.8006    6.3943 H   0  0  0  0  0  0  0  0  0  0  0  0
   -4.4321   -0.5230    5.2407 H   0  0  0  0  0  0  0  0  0  0  0  0
   -6.8618    0.4153   -0.1425 H   0  0  0  0  0  0  0  0  0  0  0  0
   -6.5344    0.0465    2.1700 H   0  0  0  0  0  0  0  0  0  0  0  0
    4.8276   -2.4242    4.3117 H   0  0  0  0  0  0  0  0  0  0  0  0
    3.9115   -3.5865    3.3450 H   0  0  0  0  0  0  0  0  0  0  0  0
   -2.3328    2.5543   -5.9691 H   0  0  0  0  0  0  0  0  0  0  0  0
   -1.8345    3.6828   -4.7030 H   0  0  0  0  0  0  0  0  0  0  0  0
    4.2131    2.0381    4.1333 H   0  0  0  0  0  0  0  0  0  0  0  0
    4.9858    0.5657    4.7324 H   0  0  0  0  0  0  0  0  0  0  0  0
   -2.1832   -1.9266   -5.5608 H   0  0  0  0  0  0  0  0  0  0  0  0
   -2.5171   -0.4205   -6.4243 H   0  0  0  0  0  0  0  0  0  0  0  0
    4.9379    0.3904   -4.7577 H   0  0  0  0  0  0  0  0  0  0  0  0
    6.2673    0.0301   -2.8363 H   0  0  0  0  0  0  0  0  0  0  0  0
    3.2939   -0.8682   -5.9857 H   0  0  0  0  0  0  0  0  0  0  0  0
    2.6199   -2.2835   -5.1680 H   0  0  0  0  0  0  0  0  0  0  0  0
    2.9726    3.3400   -4.3626 H   0  0  0  0  0  0  0  0  0  0  0  0
    3.4787    2.1378   -5.5553 H   0  0  0  0  0  0  0  0  0  0  0  0
    5.6915    2.6026   -0.4355 H   0  0  0  0  0  0  0  0  0  0  0  0
    6.7529    1.2377   -0.8015 H   0  0  0  0  0  0  0  0  0  0  0  0
    6.5632   -1.7444   -1.2317 H   0  0  0  0  0  0  0  0  0  0  0  0
    5.3343   -3.0147   -1.2410 H   0  0  0  0  0  0  0  0  0  0  0  0
   -5.4591   -2.2637   -2.0226 H   0  0  0  0  0  0  0  0  0  0  0  0
   -6.4946   -0.8383   -2.1632 H   0  0  0  0  0  0  0  0  0  0  0  0
   -6.3187    2.1623   -1.7185 H   0  0  0  0  0  0  0  0  0  0  0  0
   -5.1296    3.3563   -1.1841 H   0  0  0  0  0  0  0  0  0  0  0  0
   -4.7711   -3.0037    2.7028 H   0  0  0  0  0  0  0  0  0  0  0  0
   -5.6609   -1.7324    3.5487 H   0  0  0  0  0  0  0  0  0  0  0  0
   -5.5034    1.2443    3.9964 H   0  0  0  0  0  0  0  0  0  0  0  0
   -4.4758    2.6102    3.5466 H   0  0  0  0  0  0  0  0  0  0  0  0
    1.3324   -1.0381    6.6577 H   0  0  0  0  0  0  0  0  0  0  0  0
    3.5374   -1.0328    5.8064 H   0  0  0  0  0  0  0  0  0  0  0  0
   -0.4505    0.5639    6.8517 H   0  0  0  0  0  0  0  0  0  0  0  0
   -0.2870    2.0378    5.8899 H   0  0  0  0  0  0  0  0  0  0  0  0
   -0.6006   -3.5861    5.0737 H   0  0  0  0  0  0  0  0  0  0  0  0
   -0.6211   -2.4385    6.4182 H   0  0  0  0  0  0  0  0  0  0  0  0
   -0.1317    3.4087    1.4186 C   0  0  0  0  0  0  0  0  0  0  0  0
   -0.5647    4.6668    1.2714 C   0  0  0  0  0  0  0  0  0  0  0  0
   -0.5724    5.4227    0.1667 C   0  0  0  0  0  0  0  0  0  0  0  0
   -0.1491    5.1074   -1.0635 C   0  0  0  0  0  0  0  0  0  0  0  0
    0.3864    3.9582   -1.4929 C   0  0  0  0  0  3  0  0  0  0  0  0
    0.6310    2.8405   -0.7980 C   0  0  0  0  0  0  0  0  0  0  0  0
    0.4004    2.5959    0.4977 C   0  0  0  0  0  0  0  0  0  0  0  0
   -0.2249    2.9902    2.4225 H   0  0  0  0  0  0  0  0  0  0  0  0
   -0.9641    5.1384    2.1709 H   0  0  0  0  0  0  0  0  0  0  0  0
   -0.9774    6.4294    0.2846 H   0  0  0  0  0  0  0  0  0  0  0  0
   -0.2547    5.8910   -1.8160 H   0  0  0  0  0  0  0  0  0  0  0  0
    0.6599    3.9286   -2.5490 H   0  0  0  0  0  0  0  0  0  0  0  0
    1.0775    2.0200   -1.3627 H   0  0  0  0  0  0  0  0  0  0  0  0
    0.6838    1.6023    0.8498 H   0  0  0  0  0  0  0  0  0  0  0  0
  1  5  1  0
  1 65  1  0
  2  1  1  0
  2  6  1  0
  2  3  1  0
  2 85  1  6
  3  4  1  0
  3  8  1  0
  3 86  1  6
  4  5  1  0
  5  9  2  0
  6 66  1  0
  6  7  1  0
  7 10  2  0
  8 52  1  0
  8  7  1  0
 11 15  1  0
 12 11  1  0
 12 16  1  0
 12 13  1  0
 12 87  1  6
 13 14  1  0
 13 18  1  0
 13 88  1  6
 14 69  1  0
 15 19  2  0
 15 14  1  0
 16 17  1  0
 17 18  1  0
 17 20  2  0
 18 70  1  0
 21 25  1  0
 22 21  1  0
 22 23  1  0
 22 89  1  1
 23 24  1  0
 23 28  1  0
 23 90  1  1
 24 51  1  0
 25 24  1  0
 26 22  1  0
 26 27  1  0
 27 28  1  0
 28 53  1  0
 29 25  2  0
 30 27  2  0
 31 84  1  0
 32 31  1  0
 32 33  1  0
 32 91  1  1
 33 34  1  0
 33 92  1  1
 34 35  1  0
 35 31  1  0
 36 32  1  0
 36 83  1  0
 37 36  1  0
 38 37  1  0
 38 33  1  0
 39 35  2  0
 40 37  2  0
 41 45  1  0
 42 41  1  0
 42 43  1  0
 42 93  1  1
 43 44  1  0
 43 48  1  0
 43 94  1  1
 44 71  1  0
 45 44  1  0
 46 42  1  0
 46 47  1  0
 47 50  2  0
 47 48  1  0
 48 72  1  0
 49 45  2  0
 51 80  1  0
 51 95  1  0
 51 96  1  0
 52 16  1  0
 52 97  1  0
 52 98  1  0
 53 76  1  0
 53 99  1  0
 53100  1  0
 54  4  1  0
 54 11  1  0
 54101  1  0
 54102  1  0
 55 59  1  0
 56 55  1  0
 56 60  1  0
 56 57  1  0
 56103  1  6
 57 58  1  0
 57 62  1  0
 57104  1  6
 58 68  1  0
 59 63  2  0
 59 58  1  0
 60 61  1  0
 61 64  2  0
 61 62  1  0
 62 67  1  0
 65 55  1  0
 65105  1  0
 65106  1  0
 66 60  1  0
 66107  1  0
 66108  1  0
 67 26  1  0
 67109  1  0
 67110  1  0
 68 21  1  0
 68111  1  0
 68112  1  0
 69 41  1  0
 69113  1  0
 69114  1  0
 70 46  1  0
 70115  1  0
 70116  1  0
 71 34  1  0
 71117  1  0
 71118  1  0
 72 38  1  0
 72119  1  0
 72120  1  0
 73 74  1  0
 73 83  1  0
 74 78  1  0
 74 75  1  0
 74121  1  1
 75 80  1  0
 75122  1  1
 76 77  1  0
 76 75  1  0
 77 73  1  0
 78 84  1  0
 79 78  1  0
 80 79  1  0
 81 77  2  0
 82 79  2  0
 83123  1  0
 83124  1  0
 84125  1  0
 84126  1  0
127128  2  0
128129  1  0
129130  2  0
130131  1  0
131132  1  0
132133  2  0
133127  1  0
127134  1  0
128135  1  0
129136  1  0
130137  1  0
131138  1  0
132139  1  0
133140  1  0
M  CHG  1 131   1
M  END
>  <0_score>  (15) 
-1554.3397726930152

>  <1_score>  (15) 
-1554.339772690159

>  <2_score>  (15) 
-1554.3397726893772

>  <3_score>  (15) 
-1554.3397726881096

>  <4_score>  (15) 
-1554.3397726873966

>  <5_score>  (15) 
-1554.3397726873825

>  <6_score>  (15) 
-1554.3397726858843

>  <7_score>  (15) 
-1554.3397726841263

>  <8_score>  (15) 
-1554.3397726837743

>  <9_score>  (15) 
-1554.3397726836852

>  <10_score>  (15) 
-1554.3397726836067

>  <11_score>  (15) 
-1554.3397726835856

>  <12_score>  (15) 
-1554.3397726828998

>  <13_score>  (15) 
-1554.3397726825483

>  <14_score>  (15) 
-1554.3397726817623

>  <15_score>  (15) 
-1554.3397726817191

>  <16_score>  (15) 
-1554.3397726811709

>  <17_score>  (15) 
-1554.3397726794165

$$$$

     RDKit          3D

140161  0  0  1  0  0  0  0  0999 V2000
    1.4443   -0.5664   -5.0838 N   0  0  0  0  0  0  0  0  0  0  0  0
    1.2353    0.7501   -5.6182 C   0  0  1  0  0  0  0  0  0  0  0  0
   -0.3168    0.8652   -5.7366 C   0  0  1  0  0  0  0  0  0  0  0  0
   -0.7945   -0.4021   -5.2605 N   0  0  0  0  0  0  0  0  0  0  0  0
    0.2758   -1.2989   -5.3118 C   0  0  0  0  0  0  0  0  0  0  0  0
    1.5955    1.8208   -4.7318 N   0  0  0  0  0  0  0  0  0  0  0  0
    0.5260    2.7198   -4.7033 C   0  0  0  0  0  0  0  0  0  0  0  0
   -0.6450    1.9829   -4.8974 N   0  0  0  0  0  0  0  0  0  0  0  0
    0.2242   -2.4448   -5.7257 O   0  0  0  0  0  0  0  0  0  0  0  0
    0.6167    3.9356   -4.7490 O   0  0  0  0  0  0  0  0  0  0  0  0
   -2.9941   -0.3970   -4.4008 N   0  0  0  0  0  0  0  0  0  0  0  0
   -3.6617    0.8737   -4.4277 C   0  0  1  0  0  0  0  0  0  0  0  0
   -4.7221    0.7655   -3.2880 C   0  0  1  0  0  0  0  0  0  0  0  0
   -4.5221   -0.5526   -2.7541 N   0  0  0  0  0  0  0  0  0  0  0  0
   -3.8152   -1.2893   -3.7078 C   0  0  0  0  0  0  0  0  0  0  0  0
   -2.8450    1.9871   -4.0352 N   0  0  0  0  0  0  0  0  0  0  0  0
   -3.5670    2.7273   -3.0959 C   0  0  0  0  0  0  0  0  0  0  0  0
   -4.3785    1.8333   -2.3917 N   0  0  0  0  0  0  0  0  0  0  0  0
   -4.0506   -2.4406   -4.0354 O   0  0  0  0  0  0  0  0  0  0  0  0
   -3.6540    3.9440   -3.0640 O   0  0  0  0  0  0  0  0  0  0  0  0
    5.0953   -1.5568    0.2285 N   0  0  0  0  0  0  0  0  0  0  0  0
    5.7248   -0.4712    0.9263 C   0  0  2  0  0  0  0  0  0  0  0  0
    5.2569   -0.6522    2.4036 C   0  0  2  0  0  0  0  0  0  0  0  0
    4.4250   -1.8218    2.3625 N   0  0  0  0  0  0  0  0  0  0  0  0
    4.7178   -2.5065    1.1807 C   0  0  0  0  0  0  0  0  0  0  0  0
    5.2406    0.8316    0.5665 N   0  0  0  0  0  0  0  0  0  0  0  0
    4.9492    1.5163    1.7487 C   0  0  0  0  0  0  0  0  0  0  0  0
    4.5592    0.5681    2.6974 N   0  0  0  0  0  0  0  0  0  0  0  0
    4.8511   -3.7147    1.0723 O   0  0  0  0  0  0  0  0  0  0  0  0
    5.2142    2.6853    1.9779 O   0  0  0  0  0  0  0  0  0  0  0  0
   -1.6438   -1.8185    4.7166 N   0  0  0  0  0  0  0  0  0  0  0  0
   -2.2252   -0.6521    5.3197 C   0  0  2  0  0  0  0  0  0  0  0  0
   -3.5748   -0.4671    4.5588 C   0  0  2  0  0  0  0  0  0  0  0  0
   -3.5910   -1.5491    3.6154 N   0  0  0  0  0  0  0  0  0  0  0  0
   -2.6671   -2.5017    4.0529 C   0  0  0  0  0  0  0  0  0  0  0  0
   -1.5152    0.5700    5.0664 N   0  0  0  0  0  0  0  0  0  0  0  0
   -2.4489    1.5195    4.6446 C   0  0  0  0  0  0  0  0  0  0  0  0
   -3.4643    0.8379    3.9707 N   0  0  0  0  0  0  0  0  0  0  0  0
   -2.8438   -3.7090    4.0690 O   0  0  0  0  0  0  0  0  0  0  0  0
   -2.4912    2.6847    5.0046 O   0  0  0  0  0  0  0  0  0  0  0  0
   -5.2245   -0.8427   -0.5165 N   0  0  0  0  0  0  0  0  0  0  0  0
   -5.7970    0.3196    0.1026 C   0  0  1  0  0  0  0  0  0  0  0  0
   -5.5808    0.0784    1.6289 C   0  0  1  0  0  0  0  0  0  0  0  0
   -4.9091   -1.1890    1.6874 N   0  0  0  0  0  0  0  0  0  0  0  0
   -5.1149   -1.8321    0.4645 C   0  0  0  0  0  0  0  0  0  0  0  0
   -5.0932    1.5443   -0.1571 N   0  0  0  0  0  0  0  0  0  0  0  0
   -4.9054    2.1881    1.0688 C   0  0  0  0  0  0  0  0  0  0  0  0
   -4.7847    1.1977    2.0462 N   0  0  0  0  0  0  0  0  0  0  0  0
   -5.3871   -3.0126    0.3183 O   0  0  0  0  0  0  0  0  0  0  0  0
   -5.0642    3.3792    1.2785 O   0  0  0  0  0  0  0  0  0  0  0  0
    4.0368   -2.5203    3.5589 C   0  0  0  0  0  0  0  0  0  0  0  0
   -1.9337    2.6211   -4.9506 C   0  0  0  0  0  0  0  0  0  0  0  0
    4.2229    0.9470    4.0442 C   0  0  0  0  0  0  0  0  0  0  0  0
   -2.1488   -0.8355   -5.4792 C   0  0  0  0  0  0  0  0  0  0  0  0
    3.4780   -0.8589   -3.9137 N   0  0  0  0  0  0  0  0  0  0  0  0
    4.3222    0.3009   -3.8541 C   0  0  2  0  0  0  0  0  0  0  0  0
    5.1999    0.0636   -2.5859 C   0  0  2  0  0  0  0  0  0  0  0  0
    4.7449   -1.2013   -2.0820 N   0  0  0  0  0  0  0  0  0  0  0  0
    4.0667   -1.8469   -3.1190 C   0  0  0  0  0  0  0  0  0  0  0  0
    3.6338    1.5294   -3.5732 N   0  0  0  0  0  0  0  0  0  0  0  0
    4.3288    2.1749   -2.5478 C   0  0  0  0  0  0  0  0  0  0  0  0
    4.9003    1.1867   -1.7433 N   0  0  0  0  0  0  0  0  0  0  0  0
    4.1755   -3.0259   -3.4139 O   0  0  0  0  0  0  0  0  0  0  0  0
    4.5905    3.3658   -2.5056 O   0  0  0  0  0  0  0  0  0  0  0  0
    2.7376   -1.1975   -5.1006 C   0  0  0  0  0  0  0  0  0  0  0  0
    2.9556    2.2723   -4.6017 C   0  0  0  0  0  0  0  0  0  0  0  0
    5.7127    1.5214   -0.6045 C   0  0  0  0  0  0  0  0  0  0  0  0
    5.4932   -1.9412   -1.1000 C   0  0  0  0  0  0  0  0  0  0  0  0
   -5.4889   -1.1775   -1.8909 C   0  0  0  0  0  0  0  0  0  0  0  0
   -5.2866    2.2896   -1.3726 C   0  0  0  0  0  0  0  0  0  0  0  0
   -4.7888   -1.9302    2.9152 C   0  0  0  0  0  0  0  0  0  0  0  0
   -4.6066    1.5293    3.4346 C   0  0  0  0  0  0  0  0  0  0  0  0
    0.8369    0.4134    5.2257 N   0  0  0  0  0  0  0  0  0  0  0  0
    1.3432   -0.8848    5.5717 C   0  0  2  0  0  0  0  0  0  0  0  0
    2.7987   -0.8838    5.0096 C   0  0  2  0  0  0  0  0  0  0  0  0
    2.9375    0.4135    4.4097 N   0  0  0  0  0  0  0  0  0  0  0  0
    1.9336    1.2299    4.9367 C   0  0  0  0  0  0  0  0  0  0  0  0
    0.7087   -1.9769    4.8878 N   0  0  0  0  0  0  0  0  0  0  0  0
    1.7208   -2.7976    4.3828 C   0  0  0  0  0  0  0  0  0  0  0  0
    2.8105   -1.9777    4.0795 N   0  0  0  0  0  0  0  0  0  0  0  0
    2.0741    2.3871    5.2978 O   0  0  0  0  0  0  0  0  0  0  0  0
    1.7401   -4.0161    4.4324 O   0  0  0  0  0  0  0  0  0  0  0  0
   -0.3553    0.9472    5.8295 C   0  0  0  0  0  0  0  0  0  0  0  0
   -0.5479   -2.5228    5.3279 C   0  0  0  0  0  0  0  0  0  0  0  0
    1.7222    0.8631   -6.5945 H   0  0  0  0  0  0  0  0  0  0  0  0
   -0.6294    1.0423   -6.7729 H   0  0  0  0  0  0  0  0  0  0  0  0
   -4.1343    1.0525   -5.4014 H   0  0  0  0  0  0  0  0  0  0  0  0
   -5.7413    0.8856   -3.6750 H   0  0  0  0  0  0  0  0  0  0  0  0
    6.8169   -0.5255    0.8408 H   0  0  0  0  0  0  0  0  0  0  0  0
    6.1080   -0.7943    3.0808 H   0  0  0  0  0  0  0  0  0  0  0  0
   -2.3868   -0.8006    6.3943 H   0  0  0  0  0  0  0  0  0  0  0  0
   -4.4321   -0.5230    5.2407 H   0  0  0  0  0  0  0  0  0  0  0  0
   -6.8618    0.4153   -0.1425 H   0  0  0  0  0  0  0  0  0  0  0  0
   -6.5344    0.0465    2.1700 H   0  0  0  0  0  0  0  0  0  0  0  0
    4.8276   -2.4242    4.3117 H   0  0  0  0  0  0  0  0  0  0  0  0
    3.9115   -3.5865    3.3450 H   0  0  0  0  0  0  0  0  0  0  0  0
   -2.3328    2.5543   -5.9691 H   0  0  0  0  0  0  0  0  0  0  0  0
   -1.8345    3.6828   -4.7030 H   0  0  0  0  0  0  0  0  0  0  0  0
    4.2131    2.0381    4.1333 H   0  0  0  0  0  0  0  0  0  0  0  0
    4.9858    0.5657    4.7324 H   0  0  0  0  0  0  0  0  0  0  0  0
   -2.1832   -1.9266   -5.5608 H   0  0  0  0  0  0  0  0  0  0  0  0
   -2.5171   -0.4205   -6.4243 H   0  0  0  0  0  0  0  0  0  0  0  0
    4.9379    0.3904   -4.7577 H   0  0  0  0  0  0  0  0  0  0  0  0
    6.2673    0.0301   -2.8363 H   0  0  0  0  0  0  0  0  0  0  0  0
    3.2939   -0.8682   -5.9857 H   0  0  0  0  0  0  0  0  0  0  0  0
    2.6199   -2.2835   -5.1680 H   0  0  0  0  0  0  0  0  0  0  0  0
    2.9726    3.3400   -4.3626 H   0  0  0  0  0  0  0  0  0  0  0  0
    3.4787    2.1378   -5.5553 H   0  0  0  0  0  0  0  0  0  0  0  0
    5.6915    2.6026   -0.4355 H   0  0  0  0  0  0  0  0  0  0  0  0
    6.7529    1.2377   -0.8015 H   0  0  0  0  0  0  0  0  0  0  0  0
    6.5632   -1.7444   -1.2317 H   0  0  0  0  0  0  0  0  0  0  0  0
    5.3343   -3.0147   -1.2410 H   0  0  0  0  0  0  0  0  0  0  0  0
   -5.4591   -2.2637   -2.0226 H   0  0  0  0  0  0  0  0  0  0  0  0
   -6.4946   -0.8383   -2.1632 H   0  0  0  0  0  0  0  0  0  0  0  0
   -6.3187    2.1623   -1.7185 H   0  0  0  0  0  0  0  0  0  0  0  0
   -5.1296    3.3563   -1.1841 H   0  0  0  0  0  0  0  0  0  0  0  0
   -4.7711   -3.0037    2.7028 H   0  0  0  0  0  0  0  0  0  0  0  0
   -5.6609   -1.7324    3.5487 H   0  0  0  0  0  0  0  0  0  0  0  0
   -5.5034    1.2443    3.9964 H   0  0  0  0  0  0  0  0  0  0  0  0
   -4.4758    2.6102    3.5466 H   0  0  0  0  0  0  0  0  0  0  0  0
    1.3324   -1.0381    6.6577 H   0  0  0  0  0  0  0  0  0  0  0  0
    3.5374   -1.0328    5.8064 H   0  0  0  0  0  0  0  0  0  0  0  0
   -0.4505    0.5639    6.8517 H   0  0  0  0  0  0  0  0  0  0  0  0
   -0.2870    2.0378    5.8899 H   0  0  0  0  0  0  0  0  0  0  0  0
   -0.6006   -3.5861    5.0737 H   0  0  0  0  0  0  0  0  0  0  0  0
   -0.6211   -2.4385    6.4182 H   0  0  0  0  0  0  0  0  0  0  0  0
   -1.3117   -0.8047   -0.1070 C   0  0  0  0  0  0  0  0  0  0  0  0
   -0.4960   -0.8802   -1.1657 C   0  0  0  0  0  0  0  0  0  0  0  0
    0.6932   -0.2928   -1.3466 C   0  0  0  0  0  0  0  0  0  0  0  0
    1.3604    0.5150   -0.5135 C   0  0  0  0  0  0  0  0  0  0  0  0
    1.0033    0.9351    0.7063 C   0  0  0  0  0  3  0  0  0  0  0  0
   -0.1094    0.6510    1.3942 C   0  0  0  0  0  0  0  0  0  0  0  0
   -1.1396   -0.1233    1.0323 C   0  0  0  0  0  0  0  0  0  0  0  0
   -2.2399   -1.3741   -0.1827 H   0  0  0  0  0  0  0  0  0  0  0  0
   -0.8470   -1.5030   -1.9904 H   0  0  0  0  0  0  0  0  0  0  0  0
    1.1836   -0.5001   -2.2994 H   0  0  0  0  0  0  0  0  0  0  0  0
    2.3230    0.8794   -0.8768 H   0  0  0  0  0  0  0  0  0  0  0  0
    1.7130    1.5967    1.2060 H   0  0  0  0  0  0  0  0  0  0  0  0
   -0.1868    1.1116    2.3807 H   0  0  0  0  0  0  0  0  0  0  0  0
   -1.9460   -0.2105    1.7627 H   0  0  0  0  0  0  0  0  0  0  0  0
  1  5  1  0
  1 65  1  0
  2  1  1  0
  2  6  1  0
  2  3  1  0
  2 85  1  6
  3  4  1  0
  3  8  1  0
  3 86  1  6
  4  5  1  0
  5  9  2  0
  6 66  1  0
  6  7  1  0
  7 10  2  0
  8 52  1  0
  8  7  1  0
 11 15  1  0
 12 11  1  0
 12 16  1  0
 12 13  1  0
 12 87  1  6
 13 14  1  0
 13 18  1  0
 13 88  1  6
 14 69  1  0
 15 19  2  0
 15 14  1  0
 16 17  1  0
 17 18  1  0
 17 20  2  0
 18 70  1  0
 21 25  1  0
 22 21  1  0
 22 23  1  0
 22 89  1  1
 23 24  1  0
 23 28  1  0
 23 90  1  1
 24 51  1  0
 25 24  1  0
 26 22  1  0
 26 27  1  0
 27 28  1  0
 28 53  1  0
 29 25  2  0
 30 27  2  0
 31 84  1  0
 32 31  1  0
 32 33  1  0
 32 91  1  1
 33 34  1  0
 33 92  1  1
 34 35  1  0
 35 31  1  0
 36 32  1  0
 36 83  1  0
 37 36  1  0
 38 37  1  0
 38 33  1  0
 39 35  2  0
 40 37  2  0
 41 45  1  0
 42 41  1  0
 42 43  1  0
 42 93  1  1
 43 44  1  0
 43 48  1  0
 43 94  1  1
 44 71  1  0
 45 44  1  0
 46 42  1  0
 46 47  1  0
 47 50  2  0
 47 48  1  0
 48 72  1  0
 49 45  2  0
 51 80  1  0
 51 95  1  0
 51 96  1  0
 52 16  1  0
 52 97  1  0
 52 98  1  0
 53 76  1  0
 53 99  1  0
 53100  1  0
 54  4  1  0
 54 11  1  0
 54101  1  0
 54102  1  0
 55 59  1  0
 56 55  1  0
 56 60  1  0
 56 57  1  0
 56103  1  6
 57 58  1  0
 57 62  1  0
 57104  1  6
 58 68  1  0
 59 63  2  0
 59 58  1  0
 60 61  1  0
 61 64  2  0
 61 62  1  0
 62 67  1  0
 65 55  1  0
 65105  1  0
 65106  1  0
 66 60  1  0
 66107  1  0
 66108  1  0
 67 26  1  0
 67109  1  0
 67110  1  0
 68 21  1  0
 68111  1  0
 68112  1  0
 69 41  1  0
 69113  1  0
 69114  1  0
 70 46  1  0
 70115  1  0
 70116  1  0
 71 34  1  0
 71117  1  0
 71118  1  0
 72 38  1  0
 72119  1  0
 72120  1  0
 73 74  1  0
 73 83  1  0
 74 78  1  0
 74 75  1  0
 74121  1  1
 75 80  1  0
 75122  1  1
 76 77  1  0
 76 75  1  0
 77 73  1  0
 78 84  1  0
 79 78  1  0
 80 79  1  0
 81 77  2  0
 82 79  2  0
 83123  1  0
 83124  1  0
 84125  1  0
 84126  1  0
127128  2  0
128129  1  0
129130  2  0
130131  1  0
131132  1  0
132133  2  0
133127  1  0
127134  1  0
128135  1  0
129136  1  0
130137  1  0
131138  1  0
132139  1  0
133140  1  0
M  CHG  1 131   1
M  END
>  <0_score>  (16) 
-1554.3397726930152

>  <1_score>  (16) 
-1554.339772690159

>  <2_score>  (16) 
-1554.3397726893772

>  <3_score>  (16) 
-1554.3397726881096

>  <4_score>  (16) 
-1554.3397726873966

>  <5_score>  (16) 
-1554.3397726873825

>  <6_score>  (16) 
-1554.3397726858843

>  <7_score>  (16) 
-1554.3397726841263

>  <8_score>  (16) 
-1554.3397726837743

>  <9_score>  (16) 
-1554.3397726836852

>  <10_score>  (16) 
-1554.3397726836067

>  <11_score>  (16) 
-1554.3397726835856

>  <12_score>  (16) 
-1554.3397726828998

>  <13_score>  (16) 
-1554.3397726825483

>  <14_score>  (16) 
-1554.3397726817623

>  <15_score>  (16) 
-1554.3397726817191

>  <16_score>  (16) 
-1554.3397726811709

>  <17_score>  (16) 
-1554.3397726794165

$$$$

     RDKit          3D

140161  0  0  1  0  0  0  0  0999 V2000
    1.4443   -0.5664   -5.0838 N   0  0  0  0  0  0  0  0  0  0  0  0
    1.2353    0.7501   -5.6182 C   0  0  1  0  0  0  0  0  0  0  0  0
   -0.3168    0.8652   -5.7366 C   0  0  1  0  0  0  0  0  0  0  0  0
   -0.7945   -0.4021   -5.2605 N   0  0  0  0  0  0  0  0  0  0  0  0
    0.2758   -1.2989   -5.3118 C   0  0  0  0  0  0  0  0  0  0  0  0
    1.5955    1.8208   -4.7318 N   0  0  0  0  0  0  0  0  0  0  0  0
    0.5260    2.7198   -4.7033 C   0  0  0  0  0  0  0  0  0  0  0  0
   -0.6450    1.9829   -4.8974 N   0  0  0  0  0  0  0  0  0  0  0  0
    0.2242   -2.4448   -5.7257 O   0  0  0  0  0  0  0  0  0  0  0  0
    0.6167    3.9356   -4.7490 O   0  0  0  0  0  0  0  0  0  0  0  0
   -2.9941   -0.3970   -4.4008 N   0  0  0  0  0  0  0  0  0  0  0  0
   -3.6617    0.8737   -4.4277 C   0  0  1  0  0  0  0  0  0  0  0  0
   -4.7221    0.7655   -3.2880 C   0  0  1  0  0  0  0  0  0  0  0  0
   -4.5221   -0.5526   -2.7541 N   0  0  0  0  0  0  0  0  0  0  0  0
   -3.8152   -1.2893   -3.7078 C   0  0  0  0  0  0  0  0  0  0  0  0
   -2.8450    1.9871   -4.0352 N   0  0  0  0  0  0  0  0  0  0  0  0
   -3.5670    2.7273   -3.0959 C   0  0  0  0  0  0  0  0  0  0  0  0
   -4.3785    1.8333   -2.3917 N   0  0  0  0  0  0  0  0  0  0  0  0
   -4.0506   -2.4406   -4.0354 O   0  0  0  0  0  0  0  0  0  0  0  0
   -3.6540    3.9440   -3.0640 O   0  0  0  0  0  0  0  0  0  0  0  0
    5.0953   -1.5568    0.2285 N   0  0  0  0  0  0  0  0  0  0  0  0
    5.7248   -0.4712    0.9263 C   0  0  2  0  0  0  0  0  0  0  0  0
    5.2569   -0.6522    2.4036 C   0  0  2  0  0  0  0  0  0  0  0  0
    4.4250   -1.8218    2.3625 N   0  0  0  0  0  0  0  0  0  0  0  0
    4.7178   -2.5065    1.1807 C   0  0  0  0  0  0  0  0  0  0  0  0
    5.2406    0.8316    0.5665 N   0  0  0  0  0  0  0  0  0  0  0  0
    4.9492    1.5163    1.7487 C   0  0  0  0  0  0  0  0  0  0  0  0
    4.5592    0.5681    2.6974 N   0  0  0  0  0  0  0  0  0  0  0  0
    4.8511   -3.7147    1.0723 O   0  0  0  0  0  0  0  0  0  0  0  0
    5.2142    2.6853    1.9779 O   0  0  0  0  0  0  0  0  0  0  0  0
   -1.6438   -1.8185    4.7166 N   0  0  0  0  0  0  0  0  0  0  0  0
   -2.2252   -0.6521    5.3197 C   0  0  2  0  0  0  0  0  0  0  0  0
   -3.5748   -0.4671    4.5588 C   0  0  2  0  0  0  0  0  0  0  0  0
   -3.5910   -1.5491    3.6154 N   0  0  0  0  0  0  0  0  0  0  0  0
   -2.6671   -2.5017    4.0529 C   0  0  0  0  0  0  0  0  0  0  0  0
   -1.5152    0.5700    5.0664 N   0  0  0  0  0  0  0  0  0  0  0  0
   -2.4489    1.5195    4.6446 C   0  0  0  0  0  0  0  0  0  0  0  0
   -3.4643    0.8379    3.9707 N   0  0  0  0  0  0  0  0  0  0  0  0
   -2.8438   -3.7090    4.0690 O   0  0  0  0  0  0  0  0  0  0  0  0
   -2.4912    2.6847    5.0046 O   0  0  0  0  0  0  0  0  0  0  0  0
   -5.2245   -0.8427   -0.5165 N   0  0  0  0  0  0  0  0  0  0  0  0
   -5.7970    0.3196    0.1026 C   0  0  1  0  0  0  0  0  0  0  0  0
   -5.5808    0.0784    1.6289 C   0  0  1  0  0  0  0  0  0  0  0  0
   -4.9091   -1.1890    1.6874 N   0  0  0  0  0  0  0  0  0  0  0  0
   -5.1149   -1.8321    0.4645 C   0  0  0  0  0  0  0  0  0  0  0  0
   -5.0932    1.5443   -0.1571 N   0  0  0  0  0  0  0  0  0  0  0  0
   -4.9054    2.1881    1.0688 C   0  0  0  0  0  0  0  0  0  0  0  0
   -4.7847    1.1977    2.0462 N   0  0  0  0  0  0  0  0  0  0  0  0
   -5.3871   -3.0126    0.3183 O   0  0  0  0  0  0  0  0  0  0  0  0
   -5.0642    3.3792    1.2785 O   0  0  0  0  0  0  0  0  0  0  0  0
    4.0368   -2.5203    3.5589 C   0  0  0  0  0  0  0  0  0  0  0  0
   -1.9337    2.6211   -4.9506 C   0  0  0  0  0  0  0  0  0  0  0  0
    4.2229    0.9470    4.0442 C   0  0  0  0  0  0  0  0  0  0  0  0
   -2.1488   -0.8355   -5.4792 C   0  0  0  0  0  0  0  0  0  0  0  0
    3.4780   -0.8589   -3.9137 N   0  0  0  0  0  0  0  0  0  0  0  0
    4.3222    0.3009   -3.8541 C   0  0  2  0  0  0  0  0  0  0  0  0
    5.1999    0.0636   -2.5859 C   0  0  2  0  0  0  0  0  0  0  0  0
    4.7449   -1.2013   -2.0820 N   0  0  0  0  0  0  0  0  0  0  0  0
    4.0667   -1.8469   -3.1190 C   0  0  0  0  0  0  0  0  0  0  0  0
    3.6338    1.5294   -3.5732 N   0  0  0  0  0  0  0  0  0  0  0  0
    4.3288    2.1749   -2.5478 C   0  0  0  0  0  0  0  0  0  0  0  0
    4.9003    1.1867   -1.7433 N   0  0  0  0  0  0  0  0  0  0  0  0
    4.1755   -3.0259   -3.4139 O   0  0  0  0  0  0  0  0  0  0  0  0
    4.5905    3.3658   -2.5056 O   0  0  0  0  0  0  0  0  0  0  0  0
    2.7376   -1.1975   -5.1006 C   0  0  0  0  0  0  0  0  0  0  0  0
    2.9556    2.2723   -4.6017 C   0  0  0  0  0  0  0  0  0  0  0  0
    5.7127    1.5214   -0.6045 C   0  0  0  0  0  0  0  0  0  0  0  0
    5.4932   -1.9412   -1.1000 C   0  0  0  0  0  0  0  0  0  0  0  0
   -5.4889   -1.1775   -1.8909 C   0  0  0  0  0  0  0  0  0  0  0  0
   -5.2866    2.2896   -1.3726 C   0  0  0  0  0  0  0  0  0  0  0  0
   -4.7888   -1.9302    2.9152 C   0  0  0  0  0  0  0  0  0  0  0  0
   -4.6066    1.5293    3.4346 C   0  0  0  0  0  0  0  0  0  0  0  0
    0.8369    0.4134    5.2257 N   0  0  0  0  0  0  0  0  0  0  0  0
    1.3432   -0.8848    5.5717 C   0  0  2  0  0  0  0  0  0  0  0  0
    2.7987   -0.8838    5.0096 C   0  0  2  0  0  0  0  0  0  0  0  0
    2.9375    0.4135    4.4097 N   0  0  0  0  0  0  0  0  0  0  0  0
    1.9336    1.2299    4.9367 C   0  0  0  0  0  0  0  0  0  0  0  0
    0.7087   -1.9769    4.8878 N   0  0  0  0  0  0  0  0  0  0  0  0
    1.7208   -2.7976    4.3828 C   0  0  0  0  0  0  0  0  0  0  0  0
    2.8105   -1.9777    4.0795 N   0  0  0  0  0  0  0  0  0  0  0  0
    2.0741    2.3871    5.2978 O   0  0  0  0  0  0  0  0  0  0  0  0
    1.7401   -4.0161    4.4324 O   0  0  0  0  0  0  0  0  0  0  0  0
   -0.3553    0.9472    5.8295 C   0  0  0  0  0  0  0  0  0  0  0  0
   -0.5479   -2.5228    5.3279 C   0  0  0  0  0  0  0  0  0  0  0  0
    1.7222    0.8631   -6.5945 H   0  0  0  0  0  0  0  0  0  0  0  0
   -0.6294    1.0423   -6.7729 H   0  0  0  0  0  0  0  0  0  0  0  0
   -4.1343    1.0525   -5.4014 H   0  0  0  0  0  0  0  0  0  0  0  0
   -5.7413    0.8856   -3.6750 H   0  0  0  0  0  0  0  0  0  0  0  0
    6.8169   -0.5255    0.8408 H   0  0  0  0  0  0  0  0  0  0  0  0
    6.1080   -0.7943    3.0808 H   0  0  0  0  0  0  0  0  0  0  0  0
   -2.3868   -0.8006    6.3943 H   0  0  0  0  0  0  0  0  0  0  0  0
   -4.4321   -0.5230    5.2407 H   0  0  0  0  0  0  0  0  0  0  0  0
   -6.8618    0.4153   -0.1425 H   0  0  0  0  0  0  0  0  0  0  0  0
   -6.5344    0.0465    2.1700 H   0  0  0  0  0  0  0  0  0  0  0  0
    4.8276   -2.4242    4.3117 H   0  0  0  0  0  0  0  0  0  0  0  0
    3.9115   -3.5865    3.3450 H   0  0  0  0  0  0  0  0  0  0  0  0
   -2.3328    2.5543   -5.9691 H   0  0  0  0  0  0  0  0  0  0  0  0
   -1.8345    3.6828   -4.7030 H   0  0  0  0  0  0  0  0  0  0  0  0
    4.2131    2.0381    4.1333 H   0  0  0  0  0  0  0  0  0  0  0  0
    4.9858    0.5657    4.7324 H   0  0  0  0  0  0  0  0  0  0  0  0
   -2.1832   -1.9266   -5.5608 H   0  0  0  0  0  0  0  0  0  0  0  0
   -2.5171   -0.4205   -6.4243 H   0  0  0  0  0  0  0  0  0  0  0  0
    4.9379    0.3904   -4.7577 H   0  0  0  0  0  0  0  0  0  0  0  0
    6.2673    0.0301   -2.8363 H   0  0  0  0  0  0  0  0  0  0  0  0
    3.2939   -0.8682   -5.9857 H   0  0  0  0  0  0  0  0  0  0  0  0
    2.6199   -2.2835   -5.1680 H   0  0  0  0  0  0  0  0  0  0  0  0
    2.9726    3.3400   -4.3626 H   0  0  0  0  0  0  0  0  0  0  0  0
    3.4787    2.1378   -5.5553 H   0  0  0  0  0  0  0  0  0  0  0  0
    5.6915    2.6026   -0.4355 H   0  0  0  0  0  0  0  0  0  0  0  0
    6.7529    1.2377   -0.8015 H   0  0  0  0  0  0  0  0  0  0  0  0
    6.5632   -1.7444   -1.2317 H   0  0  0  0  0  0  0  0  0  0  0  0
    5.3343   -3.0147   -1.2410 H   0  0  0  0  0  0  0  0  0  0  0  0
   -5.4591   -2.2637   -2.0226 H   0  0  0  0  0  0  0  0  0  0  0  0
   -6.4946   -0.8383   -2.1632 H   0  0  0  0  0  0  0  0  0  0  0  0
   -6.3187    2.1623   -1.7185 H   0  0  0  0  0  0  0  0  0  0  0  0
   -5.1296    3.3563   -1.1841 H   0  0  0  0  0  0  0  0  0  0  0  0
   -4.7711   -3.0037    2.7028 H   0  0  0  0  0  0  0  0  0  0  0  0
   -5.6609   -1.7324    3.5487 H   0  0  0  0  0  0  0  0  0  0  0  0
   -5.5034    1.2443    3.9964 H   0  0  0  0  0  0  0  0  0  0  0  0
   -4.4758    2.6102    3.5466 H   0  0  0  0  0  0  0  0  0  0  0  0
    1.3324   -1.0381    6.6577 H   0  0  0  0  0  0  0  0  0  0  0  0
    3.5374   -1.0328    5.8064 H   0  0  0  0  0  0  0  0  0  0  0  0
   -0.4505    0.5639    6.8517 H   0  0  0  0  0  0  0  0  0  0  0  0
   -0.2870    2.0378    5.8899 H   0  0  0  0  0  0  0  0  0  0  0  0
   -0.6006   -3.5861    5.0737 H   0  0  0  0  0  0  0  0  0  0  0  0
   -0.6211   -2.4385    6.4182 H   0  0  0  0  0  0  0  0  0  0  0  0
   -0.1317    2.7974   -1.5313 C   0  0  0  0  0  0  0  0  0  0  0  0
   -0.5647    1.6441   -1.0076 C   0  0  0  0  0  0  0  0  0  0  0  0
   -0.5724    1.2609    0.2749 C   0  0  0  0  0  0  0  0  0  0  0  0
   -0.1491    1.9361    1.3504 C   0  0  0  0  0  0  0  0  0  0  0  0
    0.3864    3.1615    1.4091 C   0  0  0  0  0  3  0  0  0  0  0  0
    0.6310    4.0143    0.4066 C   0  0  0  0  0  0  0  0  0  0  0  0
    0.4004    3.8523   -0.9020 C   0  0  0  0  0  0  0  0  0  0  0  0
   -0.2249    2.8900   -2.6150 H   0  0  0  0  0  0  0  0  0  0  0  0
   -0.9641    0.9207   -1.7205 H   0  0  0  0  0  0  0  0  0  0  0  0
   -0.9774    0.2661    0.4694 H   0  0  0  0  0  0  0  0  0  0  0  0
   -0.2547    1.4192    2.3059 H   0  0  0  0  0  0  0  0  0  0  0  0
    0.6599    3.5117    2.4060 H   0  0  0  0  0  0  0  0  0  0  0  0
    1.0775    4.9678    0.6943 H   0  0  0  0  0  0  0  0  0  0  0  0
    0.6838    4.6912   -1.5402 H   0  0  0  0  0  0  0  0  0  0  0  0
  1  5  1  0
  1 65  1  0
  2  1  1  0
  2  6  1  0
  2  3  1  0
  2 85  1  6
  3  4  1  0
  3  8  1  0
  3 86  1  6
  4  5  1  0
  5  9  2  0
  6 66  1  0
  6  7  1  0
  7 10  2  0
  8 52  1  0
  8  7  1  0
 11 15  1  0
 12 11  1  0
 12 16  1  0
 12 13  1  0
 12 87  1  6
 13 14  1  0
 13 18  1  0
 13 88  1  6
 14 69  1  0
 15 19  2  0
 15 14  1  0
 16 17  1  0
 17 18  1  0
 17 20  2  0
 18 70  1  0
 21 25  1  0
 22 21  1  0
 22 23  1  0
 22 89  1  1
 23 24  1  0
 23 28  1  0
 23 90  1  1
 24 51  1  0
 25 24  1  0
 26 22  1  0
 26 27  1  0
 27 28  1  0
 28 53  1  0
 29 25  2  0
 30 27  2  0
 31 84  1  0
 32 31  1  0
 32 33  1  0
 32 91  1  1
 33 34  1  0
 33 92  1  1
 34 35  1  0
 35 31  1  0
 36 32  1  0
 36 83  1  0
 37 36  1  0
 38 37  1  0
 38 33  1  0
 39 35  2  0
 40 37  2  0
 41 45  1  0
 42 41  1  0
 42 43  1  0
 42 93  1  1
 43 44  1  0
 43 48  1  0
 43 94  1  1
 44 71  1  0
 45 44  1  0
 46 42  1  0
 46 47  1  0
 47 50  2  0
 47 48  1  0
 48 72  1  0
 49 45  2  0
 51 80  1  0
 51 95  1  0
 51 96  1  0
 52 16  1  0
 52 97  1  0
 52 98  1  0
 53 76  1  0
 53 99  1  0
 53100  1  0
 54  4  1  0
 54 11  1  0
 54101  1  0
 54102  1  0
 55 59  1  0
 56 55  1  0
 56 60  1  0
 56 57  1  0
 56103  1  6
 57 58  1  0
 57 62  1  0
 57104  1  6
 58 68  1  0
 59 63  2  0
 59 58  1  0
 60 61  1  0
 61 64  2  0
 61 62  1  0
 62 67  1  0
 65 55  1  0
 65105  1  0
 65106  1  0
 66 60  1  0
 66107  1  0
 66108  1  0
 67 26  1  0
 67109  1  0
 67110  1  0
 68 21  1  0
 68111  1  0
 68112  1  0
 69 41  1  0
 69113  1  0
 69114  1  0
 70 46  1  0
 70115  1  0
 70116  1  0
 71 34  1  0
 71117  1  0
 71118  1  0
 72 38  1  0
 72119  1  0
 72120  1  0
 73 74  1  0
 73 83  1  0
 74 78  1  0
 74 75  1  0
 74121  1  1
 75 80  1  0
 75122  1  1
 76 77  1  0
 76 75  1  0
 77 73  1  0
 78 84  1  0
 79 78  1  0
 80 79  1  0
 81 77  2  0
 82 79  2  0
 83123  1  0
 83124  1  0
 84125  1  0
 84126  1  0
127128  2  0
128129  1  0
129130  2  0
130131  1  0
131132  1  0
132133  2  0
133127  1  0
127134  1  0
128135  1  0
129136  1  0
130137  1  0
131138  1  0
132139  1  0
133140  1  0
M  CHG  1 131   1
M  END
>  <0_score>  (17) 
-1554.3397726930152

>  <1_score>  (17) 
-1554.339772690159

>  <2_score>  (17) 
-1554.3397726893772

>  <3_score>  (17) 
-1554.3397726881096

>  <4_score>  (17) 
-1554.3397726873966

>  <5_score>  (17) 
-1554.3397726873825

>  <6_score>  (17) 
-1554.3397726858843

>  <7_score>  (17) 
-1554.3397726841263

>  <8_score>  (17) 
-1554.3397726837743

>  <9_score>  (17) 
-1554.3397726836852

>  <10_score>  (17) 
-1554.3397726836067

>  <11_score>  (17) 
-1554.3397726835856

>  <12_score>  (17) 
-1554.3397726828998

>  <13_score>  (17) 
-1554.3397726825483

>  <14_score>  (17) 
-1554.3397726817623

>  <15_score>  (17) 
-1554.3397726817191

>  <16_score>  (17) 
-1554.3397726811709

>  <17_score>  (17) 
-1554.3397726794165

$$$$

     RDKit          3D

140161  0  0  1  0  0  0  0  0999 V2000
    1.4443   -0.5664   -5.0838 N   0  0  0  0  0  0  0  0  0  0  0  0
    1.2353    0.7501   -5.6182 C   0  0  1  0  0  0  0  0  0  0  0  0
   -0.3168    0.8652   -5.7366 C   0  0  1  0  0  0  0  0  0  0  0  0
   -0.7945   -0.4021   -5.2605 N   0  0  0  0  0  0  0  0  0  0  0  0
    0.2758   -1.2989   -5.3118 C   0  0  0  0  0  0  0  0  0  0  0  0
    1.5955    1.8208   -4.7318 N   0  0  0  0  0  0  0  0  0  0  0  0
    0.5260    2.7198   -4.7033 C   0  0  0  0  0  0  0  0  0  0  0  0
   -0.6450    1.9829   -4.8974 N   0  0  0  0  0  0  0  0  0  0  0  0
    0.2242   -2.4448   -5.7257 O   0  0  0  0  0  0  0  0  0  0  0  0
    0.6167    3.9356   -4.7490 O   0  0  0  0  0  0  0  0  0  0  0  0
   -2.9941   -0.3970   -4.4008 N   0  0  0  0  0  0  0  0  0  0  0  0
   -3.6617    0.8737   -4.4277 C   0  0  1  0  0  0  0  0  0  0  0  0
   -4.7221    0.7655   -3.2880 C   0  0  1  0  0  0  0  0  0  0  0  0
   -4.5221   -0.5526   -2.7541 N   0  0  0  0  0  0  0  0  0  0  0  0
   -3.8152   -1.2893   -3.7078 C   0  0  0  0  0  0  0  0  0  0  0  0
   -2.8450    1.9871   -4.0352 N   0  0  0  0  0  0  0  0  0  0  0  0
   -3.5670    2.7273   -3.0959 C   0  0  0  0  0  0  0  0  0  0  0  0
   -4.3785    1.8333   -2.3917 N   0  0  0  0  0  0  0  0  0  0  0  0
   -4.0506   -2.4406   -4.0354 O   0  0  0  0  0  0  0  0  0  0  0  0
   -3.6540    3.9440   -3.0640 O   0  0  0  0  0  0  0  0  0  0  0  0
    5.0953   -1.5568    0.2285 N   0  0  0  0  0  0  0  0  0  0  0  0
    5.7248   -0.4712    0.9263 C   0  0  2  0  0  0  0  0  0  0  0  0
    5.2569   -0.6522    2.4036 C   0  0  2  0  0  0  0  0  0  0  0  0
    4.4250   -1.8218    2.3625 N   0  0  0  0  0  0  0  0  0  0  0  0
    4.7178   -2.5065    1.1807 C   0  0  0  0  0  0  0  0  0  0  0  0
    5.2406    0.8316    0.5665 N   0  0  0  0  0  0  0  0  0  0  0  0
    4.9492    1.5163    1.7487 C   0  0  0  0  0  0  0  0  0  0  0  0
    4.5592    0.5681    2.6974 N   0  0  0  0  0  0  0  0  0  0  0  0
    4.8511   -3.7147    1.0723 O   0  0  0  0  0  0  0  0  0  0  0  0
    5.2142    2.6853    1.9779 O   0  0  0  0  0  0  0  0  0  0  0  0
   -1.6438   -1.8185    4.7166 N   0  0  0  0  0  0  0  0  0  0  0  0
   -2.2252   -0.6521    5.3197 C   0  0  2  0  0  0  0  0  0  0  0  0
   -3.5748   -0.4671    4.5588 C   0  0  2  0  0  0  0  0  0  0  0  0
   -3.5910   -1.5491    3.6154 N   0  0  0  0  0  0  0  0  0  0  0  0
   -2.6671   -2.5017    4.0529 C   0  0  0  0  0  0  0  0  0  0  0  0
   -1.5152    0.5700    5.0664 N   0  0  0  0  0  0  0  0  0  0  0  0
   -2.4489    1.5195    4.6446 C   0  0  0  0  0  0  0  0  0  0  0  0
   -3.4643    0.8379    3.9707 N   0  0  0  0  0  0  0  0  0  0  0  0
   -2.8438   -3.7090    4.0690 O   0  0  0  0  0  0  0  0  0  0  0  0
   -2.4912    2.6847    5.0046 O   0  0  0  0  0  0  0  0  0  0  0  0
   -5.2245   -0.8427   -0.5165 N   0  0  0  0  0  0  0  0  0  0  0  0
   -5.7970    0.3196    0.1026 C   0  0  1  0  0  0  0  0  0  0  0  0
   -5.5808    0.0784    1.6289 C   0  0  1  0  0  0  0  0  0  0  0  0
   -4.9091   -1.1890    1.6874 N   0  0  0  0  0  0  0  0  0  0  0  0
   -5.1149   -1.8321    0.4645 C   0  0  0  0  0  0  0  0  0  0  0  0
   -5.0932    1.5443   -0.1571 N   0  0  0  0  0  0  0  0  0  0  0  0
   -4.9054    2.1881    1.0688 C   0  0  0  0  0  0  0  0  0  0  0  0
   -4.7847    1.1977    2.0462 N   0  0  0  0  0  0  0  0  0  0  0  0
   -5.3871   -3.0126    0.3183 O   0  0  0  0  0  0  0  0  0  0  0  0
   -5.0642    3.3792    1.2785 O   0  0  0  0  0  0  0  0  0  0  0  0
    4.0368   -2.5203    3.5589 C   0  0  0  0  0  0  0  0  0  0  0  0
   -1.9337    2.6211   -4.9506 C   0  0  0  0  0  0  0  0  0  0  0  0
    4.2229    0.9470    4.0442 C   0  0  0  0  0  0  0  0  0  0  0  0
   -2.1488   -0.8355   -5.4792 C   0  0  0  0  0  0  0  0  0  0  0  0
    3.4780   -0.8589   -3.9137 N   0  0  0  0  0  0  0  0  0  0  0  0
    4.3222    0.3009   -3.8541 C   0  0  2  0  0  0  0  0  0  0  0  0
    5.1999    0.0636   -2.5859 C   0  0  2  0  0  0  0  0  0  0  0  0
    4.7449   -1.2013   -2.0820 N   0  0  0  0  0  0  0  0  0  0  0  0
    4.0667   -1.8469   -3.1190 C   0  0  0  0  0  0  0  0  0  0  0  0
    3.6338    1.5294   -3.5732 N   0  0  0  0  0  0  0  0  0  0  0  0
    4.3288    2.1749   -2.5478 C   0  0  0  0  0  0  0  0  0  0  0  0
    4.9003    1.1867   -1.7433 N   0  0  0  0  0  0  0  0  0  0  0  0
    4.1755   -3.0259   -3.4139 O   0  0  0  0  0  0  0  0  0  0  0  0
    4.5905    3.3658   -2.5056 O   0  0  0  0  0  0  0  0  0  0  0  0
    2.7376   -1.1975   -5.1006 C   0  0  0  0  0  0  0  0  0  0  0  0
    2.9556    2.2723   -4.6017 C   0  0  0  0  0  0  0  0  0  0  0  0
    5.7127    1.5214   -0.6045 C   0  0  0  0  0  0  0  0  0  0  0  0
    5.4932   -1.9412   -1.1000 C   0  0  0  0  0  0  0  0  0  0  0  0
   -5.4889   -1.1775   -1.8909 C   0  0  0  0  0  0  0  0  0  0  0  0
   -5.2866    2.2896   -1.3726 C   0  0  0  0  0  0  0  0  0  0  0  0
   -4.7888   -1.9302    2.9152 C   0  0  0  0  0  0  0  0  0  0  0  0
   -4.6066    1.5293    3.4346 C   0  0  0  0  0  0  0  0  0  0  0  0
    0.8369    0.4134    5.2257 N   0  0  0  0  0  0  0  0  0  0  0  0
    1.3432   -0.8848    5.5717 C   0  0  2  0  0  0  0  0  0  0  0  0
    2.7987   -0.8838    5.0096 C   0  0  2  0  0  0  0  0  0  0  0  0
    2.9375    0.4135    4.4097 N   0  0  0  0  0  0  0  0  0  0  0  0
    1.9336    1.2299    4.9367 C   0  0  0  0  0  0  0  0  0  0  0  0
    0.7087   -1.9769    4.8878 N   0  0  0  0  0  0  0  0  0  0  0  0
    1.7208   -2.7976    4.3828 C   0  0  0  0  0  0  0  0  0  0  0  0
    2.8105   -1.9777    4.0795 N   0  0  0  0  0  0  0  0  0  0  0  0
    2.0741    2.3871    5.2978 O   0  0  0  0  0  0  0  0  0  0  0  0
    1.7401   -4.0161    4.4324 O   0  0  0  0  0  0  0  0  0  0  0  0
   -0.3553    0.9472    5.8295 C   0  0  0  0  0  0  0  0  0  0  0  0
   -0.5479   -2.5228    5.3279 C   0  0  0  0  0  0  0  0  0  0  0  0
    1.7222    0.8631   -6.5945 H   0  0  0  0  0  0  0  0  0  0  0  0
   -0.6294    1.0423   -6.7729 H   0  0  0  0  0  0  0  0  0  0  0  0
   -4.1343    1.0525   -5.4014 H   0  0  0  0  0  0  0  0  0  0  0  0
   -5.7413    0.8856   -3.6750 H   0  0  0  0  0  0  0  0  0  0  0  0
    6.8169   -0.5255    0.8408 H   0  0  0  0  0  0  0  0  0  0  0  0
    6.1080   -0.7943    3.0808 H   0  0  0  0  0  0  0  0  0  0  0  0
   -2.3868   -0.8006    6.3943 H   0  0  0  0  0  0  0  0  0  0  0  0
   -4.4321   -0.5230    5.2407 H   0  0  0  0  0  0  0  0  0  0  0  0
   -6.8618    0.4153   -0.1425 H   0  0  0  0  0  0  0  0  0  0  0  0
   -6.5344    0.0465    2.1700 H   0  0  0  0  0  0  0  0  0  0  0  0
    4.8276   -2.4242    4.3117 H   0  0  0  0  0  0  0  0  0  0  0  0
    3.9115   -3.5865    3.3450 H   0  0  0  0  0  0  0  0  0  0  0  0
   -2.3328    2.5543   -5.9691 H   0  0  0  0  0  0  0  0  0  0  0  0
   -1.8345    3.6828   -4.7030 H   0  0  0  0  0  0  0  0  0  0  0  0
    4.2131    2.0381    4.1333 H   0  0  0  0  0  0  0  0  0  0  0  0
    4.9858    0.5657    4.7324 H   0  0  0  0  0  0  0  0  0  0  0  0
   -2.1832   -1.9266   -5.5608 H   0  0  0  0  0  0  0  0  0  0  0  0
   -2.5171   -0.4205   -6.4243 H   0  0  0  0  0  0  0  0  0  0  0  0
    4.9379    0.3904   -4.7577 H   0  0  0  0  0  0  0  0  0  0  0  0
    6.2673    0.0301   -2.8363 H   0  0  0  0  0  0  0  0  0  0  0  0
    3.2939   -0.8682   -5.9857 H   0  0  0  0  0  0  0  0  0  0  0  0
    2.6199   -2.2835   -5.1680 H   0  0  0  0  0  0  0  0  0  0  0  0
    2.9726    3.3400   -4.3626 H   0  0  0  0  0  0  0  0  0  0  0  0
    3.4787    2.1378   -5.5553 H   0  0  0  0  0  0  0  0  0  0  0  0
    5.6915    2.6026   -0.4355 H   0  0  0  0  0  0  0  0  0  0  0  0
    6.7529    1.2377   -0.8015 H   0  0  0  0  0  0  0  0  0  0  0  0
    6.5632   -1.7444   -1.2317 H   0  0  0  0  0  0  0  0  0  0  0  0
    5.3343   -3.0147   -1.2410 H   0  0  0  0  0  0  0  0  0  0  0  0
   -5.4591   -2.2637   -2.0226 H   0  0  0  0  0  0  0  0  0  0  0  0
   -6.4946   -0.8383   -2.1632 H   0  0  0  0  0  0  0  0  0  0  0  0
   -6.3187    2.1623   -1.7185 H   0  0  0  0  0  0  0  0  0  0  0  0
   -5.1296    3.3563   -1.1841 H   0  0  0  0  0  0  0  0  0  0  0  0
   -4.7711   -3.0037    2.7028 H   0  0  0  0  0  0  0  0  0  0  0  0
   -5.6609   -1.7324    3.5487 H   0  0  0  0  0  0  0  0  0  0  0  0
   -5.5034    1.2443    3.9964 H   0  0  0  0  0  0  0  0  0  0  0  0
   -4.4758    2.6102    3.5466 H   0  0  0  0  0  0  0  0  0  0  0  0
    1.3324   -1.0381    6.6577 H   0  0  0  0  0  0  0  0  0  0  0  0
    3.5374   -1.0328    5.8064 H   0  0  0  0  0  0  0  0  0  0  0  0
   -0.4505    0.5639    6.8517 H   0  0  0  0  0  0  0  0  0  0  0  0
   -0.2870    2.0378    5.8899 H   0  0  0  0  0  0  0  0  0  0  0  0
   -0.6006   -3.5861    5.0737 H   0  0  0  0  0  0  0  0  0  0  0  0
   -0.6211   -2.4385    6.4182 H   0  0  0  0  0  0  0  0  0  0  0  0
   -0.1317    4.1999   -0.1070 C   0  0  0  0  0  0  0  0  0  0  0  0
   -0.5647    3.5045   -1.1657 C   0  0  0  0  0  0  0  0  0  0  0  0
   -0.5724    2.1782   -1.3466 C   0  0  0  0  0  0  0  0  0  0  0  0
   -0.1491    1.2197   -0.5135 C   0  0  0  0  0  0  0  0  0  0  0  0
    0.3864    1.3508    0.7063 C   0  0  0  0  0  3  0  0  0  0  0  0
    0.6310    2.4728    1.3942 C   0  0  0  0  0  0  0  0  0  0  0  0
    0.4004    3.7407    1.0323 C   0  0  0  0  0  0  0  0  0  0  0  0
   -0.2249    5.2848   -0.1827 H   0  0  0  0  0  0  0  0  0  0  0  0
   -0.9641    4.0973   -1.9904 H   0  0  0  0  0  0  0  0  0  0  0  0
   -0.9774    1.8326   -2.2994 H   0  0  0  0  0  0  0  0  0  0  0  0
   -0.2547    0.1959   -0.8768 H   0  0  0  0  0  0  0  0  0  0  0  0
    0.6599    0.4198    1.2060 H   0  0  0  0  0  0  0  0  0  0  0  0
    1.0775    2.3356    2.3807 H   0  0  0  0  0  0  0  0  0  0  0  0
    0.6838    4.5008    1.7627 H   0  0  0  0  0  0  0  0  0  0  0  0
  1  5  1  0
  1 65  1  0
  2  1  1  0
  2  6  1  0
  2  3  1  0
  2 85  1  6
  3  4  1  0
  3  8  1  0
  3 86  1  6
  4  5  1  0
  5  9  2  0
  6 66  1  0
  6  7  1  0
  7 10  2  0
  8 52  1  0
  8  7  1  0
 11 15  1  0
 12 11  1  0
 12 16  1  0
 12 13  1  0
 12 87  1  6
 13 14  1  0
 13 18  1  0
 13 88  1  6
 14 69  1  0
 15 19  2  0
 15 14  1  0
 16 17  1  0
 17 18  1  0
 17 20  2  0
 18 70  1  0
 21 25  1  0
 22 21  1  0
 22 23  1  0
 22 89  1  1
 23 24  1  0
 23 28  1  0
 23 90  1  1
 24 51  1  0
 25 24  1  0
 26 22  1  0
 26 27  1  0
 27 28  1  0
 28 53  1  0
 29 25  2  0
 30 27  2  0
 31 84  1  0
 32 31  1  0
 32 33  1  0
 32 91  1  1
 33 34  1  0
 33 92  1  1
 34 35  1  0
 35 31  1  0
 36 32  1  0
 36 83  1  0
 37 36  1  0
 38 37  1  0
 38 33  1  0
 39 35  2  0
 40 37  2  0
 41 45  1  0
 42 41  1  0
 42 43  1  0
 42 93  1  1
 43 44  1  0
 43 48  1  0
 43 94  1  1
 44 71  1  0
 45 44  1  0
 46 42  1  0
 46 47  1  0
 47 50  2  0
 47 48  1  0
 48 72  1  0
 49 45  2  0
 51 80  1  0
 51 95  1  0
 51 96  1  0
 52 16  1  0
 52 97  1  0
 52 98  1  0
 53 76  1  0
 53 99  1  0
 53100  1  0
 54  4  1  0
 54 11  1  0
 54101  1  0
 54102  1  0
 55 59  1  0
 56 55  1  0
 56 60  1  0
 56 57  1  0
 56103  1  6
 57 58  1  0
 57 62  1  0
 57104  1  6
 58 68  1  0
 59 63  2  0
 59 58  1  0
 60 61  1  0
 61 64  2  0
 61 62  1  0
 62 67  1  0
 65 55  1  0
 65105  1  0
 65106  1  0
 66 60  1  0
 66107  1  0
 66108  1  0
 67 26  1  0
 67109  1  0
 67110  1  0
 68 21  1  0
 68111  1  0
 68112  1  0
 69 41  1  0
 69113  1  0
 69114  1  0
 70 46  1  0
 70115  1  0
 70116  1  0
 71 34  1  0
 71117  1  0
 71118  1  0
 72 38  1  0
 72119  1  0
 72120  1  0
 73 74  1  0
 73 83  1  0
 74 78  1  0
 74 75  1  0
 74121  1  1
 75 80  1  0
 75122  1  1
 76 77  1  0
 76 75  1  0
 77 73  1  0
 78 84  1  0
 79 78  1  0
 80 79  1  0
 81 77  2  0
 82 79  2  0
 83123  1  0
 83124  1  0
 84125  1  0
 84126  1  0
127128  2  0
128129  1  0
129130  2  0
130131  1  0
131132  1  0
132133  2  0
133127  1  0
127134  1  0
128135  1  0
129136  1  0
130137  1  0
131138  1  0
132139  1  0
133140  1  0
M  CHG  1 131   1
M  END
>  <0_score>  (18) 
-1554.3397726930152

>  <1_score>  (18) 
-1554.339772690159

>  <2_score>  (18) 
-1554.3397726893772

>  <3_score>  (18) 
-1554.3397726881096

>  <4_score>  (18) 
-1554.3397726873966

>  <5_score>  (18) 
-1554.3397726873825

>  <6_score>  (18) 
-1554.3397726858843

>  <7_score>  (18) 
-1554.3397726841263

>  <8_score>  (18) 
-1554.3397726837743

>  <9_score>  (18) 
-1554.3397726836852

>  <10_score>  (18) 
-1554.3397726836067

>  <11_score>  (18) 
-1554.3397726835856

>  <12_score>  (18) 
-1554.3397726828998

>  <13_score>  (18) 
-1554.3397726825483

>  <14_score>  (18) 
-1554.3397726817623

>  <15_score>  (18) 
-1554.3397726817191

>  <16_score>  (18) 
-1554.3397726811709

>  <17_score>  (18) 
-1554.3397726794165

$$$$
