
     RDKit          3D

140161  0  0  1  0  0  0  0  0999 V2000
    1.3410   -0.5630   -5.0620 N   0  0  0  0  0  0  0  0  0  0  0  0
    1.2350    0.7530   -5.6450 C   0  0  1  0  0  0  0  0  0  0  0  0
   -0.3060    0.9780   -5.7310 C   0  0  1  0  0  0  0  0  0  0  0  0
   -0.8470   -0.3140   -5.4200 N   0  0  0  0  0  0  0  0  0  0  0  0
    0.1230   -1.2290   -5.0420 C   0  0  0  0  0  0  0  0  0  0  0  0
    1.6850    1.8550   -4.8460 N   0  0  0  0  0  0  0  0  0  0  0  0
    0.6440    2.6120   -4.3330 C   0  0  0  0  0  0  0  0  0  0  0  0
   -0.5370    2.0290   -4.7700 N   0  0  0  0  0  0  0  0  0  0  0  0
   -0.0530   -2.4000   -4.8020 O   0  0  0  0  0  0  0  0  0  0  0  0
    0.7490    3.6240   -3.6810 O   0  0  0  0  0  0  0  0  0  0  0  0
   -3.1110   -0.2710   -4.5300 N   0  0  0  0  0  0  0  0  0  0  0  0
   -3.6590    1.0500   -4.4030 C   0  0  1  0  0  0  0  0  0  0  0  0
   -4.7400    0.8890   -3.2890 C   0  0  1  0  0  0  0  0  0  0  0  0
   -4.5400   -0.4620   -2.8270 N   0  0  0  0  0  0  0  0  0  0  0  0
   -3.6610   -1.1740   -3.6330 C   0  0  0  0  0  0  0  0  0  0  0  0
   -2.7860    2.0670   -3.8730 N   0  0  0  0  0  0  0  0  0  0  0  0
   -3.2890    2.6520   -2.7200 C   0  0  0  0  0  0  0  0  0  0  0  0
   -4.4250    1.9420   -2.3680 N   0  0  0  0  0  0  0  0  0  0  0  0
   -3.4600   -2.3640   -3.6020 O   0  0  0  0  0  0  0  0  0  0  0  0
   -2.8550    3.6320   -2.1630 O   0  0  0  0  0  0  0  0  0  0  0  0
    4.9990   -1.6050    0.3100 N   0  0  0  0  0  0  0  0  0  0  0  0
    5.7500   -0.5370    0.9280 C   0  0  2  0  0  0  0  0  0  0  0  0
    5.2890   -0.6010    2.4160 C   0  0  2  0  0  0  0  0  0  0  0  0
    4.5660   -1.8370    2.4860 N   0  0  0  0  0  0  0  0  0  0  0  0
    4.4000   -2.4360    1.2470 C   0  0  0  0  0  0  0  0  0  0  0  0
    5.4160    0.8010    0.5360 N   0  0  0  0  0  0  0  0  0  0  0  0
    4.6970    1.4840    1.5040 C   0  0  0  0  0  0  0  0  0  0  0  0
    4.5220    0.6130    2.5710 N   0  0  0  0  0  0  0  0  0  0  0  0
    3.8850   -3.5070    1.0340 O   0  0  0  0  0  0  0  0  0  0  0  0
    4.3440    2.6380    1.4520 O   0  0  0  0  0  0  0  0  0  0  0  0
   -1.6400   -1.8800    4.8240 N   0  0  0  0  0  0  0  0  0  0  0  0
   -2.2420   -0.6820    5.3320 C   0  0  2  0  0  0  0  0  0  0  0  0
   -3.5860   -0.5950    4.5460 C   0  0  2  0  0  0  0  0  0  0  0  0
   -3.4410   -1.6150    3.5360 N   0  0  0  0  0  0  0  0  0  0  0  0
   -2.3460   -2.4350    3.7680 C   0  0  0  0  0  0  0  0  0  0  0  0
   -1.5920    0.5650    5.0070 N   0  0  0  0  0  0  0  0  0  0  0  0
   -2.4520    1.4580    4.3800 C   0  0  0  0  0  0  0  0  0  0  0  0
   -3.6170    0.7650    4.0920 N   0  0  0  0  0  0  0  0  0  0  0  0
   -2.0890   -3.4700    3.2020 O   0  0  0  0  0  0  0  0  0  0  0  0
   -2.2490    2.6310    4.1800 O   0  0  0  0  0  0  0  0  0  0  0  0
   -5.3360   -0.8900   -0.5730 N   0  0  0  0  0  0  0  0  0  0  0  0
   -5.8430    0.2690    0.1010 C   0  0  1  0  0  0  0  0  0  0  0  0
   -5.6090   -0.0600    1.6080 C   0  0  1  0  0  0  0  0  0  0  0  0
   -4.7930   -1.2490    1.5610 N   0  0  0  0  0  0  0  0  0  0  0  0
   -4.7210   -1.7890    0.2840 C   0  0  0  0  0  0  0  0  0  0  0  0
   -5.1160    1.5030   -0.0830 N   0  0  0  0  0  0  0  0  0  0  0  0
   -4.7190    2.0630    1.1250 C   0  0  0  0  0  0  0  0  0  0  0  0
   -4.9900    1.1310    2.1140 N   0  0  0  0  0  0  0  0  0  0  0  0
   -4.2650   -2.8660   -0.0170 O   0  0  0  0  0  0  0  0  0  0  0  0
   -4.2810    3.1760    1.2910 O   0  0  0  0  0  0  0  0  0  0  0  0
    4.1080   -2.4590    3.6970 C   0  0  2  0  0  0  0  0  0  0  0  0
   -1.7830    2.7370   -4.6570 C   0  0  2  0  0  0  0  0  0  0  0  0
    4.0850    1.1110    3.8490 C   0  0  2  0  0  0  0  0  0  0  0  0
   -2.2240   -0.6910   -5.5800 C   0  0  2  0  0  0  0  0  0  0  0  0
    3.4340   -0.9760   -3.9100 N   0  0  0  0  0  0  0  0  0  0  0  0
    4.3330    0.1440   -3.8890 C   0  0  2  0  0  0  0  0  0  0  0  0
    5.2040   -0.1130   -2.6190 C   0  0  2  0  0  0  0  0  0  0  0  0
    4.6440   -1.3190   -2.0690 N   0  0  0  0  0  0  0  0  0  0  0  0
    3.6480   -1.8630   -2.8660 C   0  0  0  0  0  0  0  0  0  0  0  0
    3.7520    1.4370   -3.6380 N   0  0  0  0  0  0  0  0  0  0  0  0
    4.2370    2.0290   -2.4810 C   0  0  0  0  0  0  0  0  0  0  0  0
    5.0350    1.0890   -1.8480 N   0  0  0  0  0  0  0  0  0  0  0  0
    3.1120   -2.9340   -2.7150 O   0  0  0  0  0  0  0  0  0  0  0  0
    4.0500    3.1670   -2.1250 O   0  0  0  0  0  0  0  0  0  0  0  0
    2.5730   -1.3060   -5.0100 C   0  0  2  0  0  0  0  0  0  0  0  0
    3.0600    2.2120   -4.6330 C   0  0  2  0  0  0  0  0  0  0  0  0
    5.8190    1.4280   -0.6920 C   0  0  1  0  0  0  0  0  0  0  0  0
    5.2590   -2.0850   -1.0220 C   0  0  1  0  0  0  0  0  0  0  0  0
   -5.4730   -1.1550   -1.9770 C   0  0  2  0  0  0  0  0  0  0  0  0
   -5.2450    2.3290   -1.2550 C   0  0  2  0  0  0  0  0  0  0  0  0
   -4.5280   -2.0700    2.7120 C   0  0  1  0  0  0  0  0  0  0  0  0
   -4.7580    1.4120    3.5050 C   0  0  1  0  0  0  0  0  0  0  0  0
    0.8230    0.5110    5.2210 N   0  0  0  0  0  0  0  0  0  0  0  0
    1.3580   -0.7650    5.6070 C   0  0  2  0  0  0  0  0  0  0  0  0
    2.8150   -0.7320    5.0450 C   0  0  2  0  0  0  0  0  0  0  0  0
    2.8710    0.5230    4.3410 N   0  0  0  0  0  0  0  0  0  0  0  0
    1.7250    1.2860    4.5100 C   0  0  0  0  0  0  0  0  0  0  0  0
    0.7840   -1.9250    4.9760 N   0  0  0  0  0  0  0  0  0  0  0  0
    1.7160   -2.6590    4.2570 C   0  0  0  0  0  0  0  0  0  0  0  0
    2.8920   -1.9250    4.2480 N   0  0  0  0  0  0  0  0  0  0  0  0
    1.5670    2.4300    4.1590 O   0  0  0  0  0  0  0  0  0  0  0  0
    1.5540   -3.7580    3.7810 O   0  0  0  0  0  0  0  0  0  0  0  0
   -0.4220    1.0470    5.6940 C   0  0  2  0  0  0  0  0  0  0  0  0
   -0.4700   -2.5100    5.3690 C   0  0  2  0  0  0  0  0  0  0  0  0
    1.8262    0.7519   -6.5368 H   0  0  0  0  0  0  0  0  0  0  0  0
   -0.7495    1.2891   -6.6537 H   0  0  0  0  0  0  0  0  0  0  0  0
   -3.9500    1.3636   -5.3837 H   0  0  0  0  0  0  0  0  0  0  0  0
   -5.7768    0.9872   -3.5345 H   0  0  0  0  0  0  0  0  0  0  0  0
    6.7798   -0.6871    0.6794 H   0  0  0  0  0  0  0  0  0  0  0  0
    6.0161   -0.6201    3.2007 H   0  0  0  0  0  0  0  0  0  0  0  0
   -2.2502   -0.7649    6.3988 H   0  0  0  0  0  0  0  0  0  0  0  0
   -4.5118   -0.7776    5.0504 H   0  0  0  0  0  0  0  0  0  0  0  0
   -6.8362    0.4316   -0.2622 H   0  0  0  0  0  0  0  0  0  0  0  0
   -6.4428   -0.2737    2.2436 H   0  0  0  0  0  0  0  0  0  0  0  0
    4.8774   -2.3529    4.4330 H   0  0  0  0  0  0  0  0  0  0  0  0
    3.8919   -3.4751    3.4407 H   0  0  0  0  0  0  0  0  0  0  0  0
   -2.1734    2.8841   -5.6423 H   0  0  0  0  0  0  0  0  0  0  0  0
   -1.5650    3.6534   -4.1495 H   0  0  0  0  0  0  0  0  0  0  0  0
    3.9317    2.1662    3.7604 H   0  0  0  0  0  0  0  0  0  0  0  0
    4.8506    0.8532    4.5506 H   0  0  0  0  0  0  0  0  0  0  0  0
   -2.2678   -1.7584   -5.6401 H   0  0  0  0  0  0  0  0  0  0  0  0
   -2.5621   -0.1925   -6.4644 H   0  0  0  0  0  0  0  0  0  0  0  0
    4.7992    0.1897   -4.8510 H   0  0  0  0  0  0  0  0  0  0  0  0
    6.2568   -0.2736   -2.7228 H   0  0  0  0  0  0  0  0  0  0  0  0
    3.1093   -1.1235   -5.9177 H   0  0  0  0  0  0  0  0  0  0  0  0
    2.2985   -2.3317   -4.8778 H   0  0  0  0  0  0  0  0  0  0  0  0
    3.0918    3.2385   -4.3327 H   0  0  0  0  0  0  0  0  0  0  0  0
    3.5614    2.0187   -5.5583 H   0  0  0  0  0  0  0  0  0  0  0  0
    5.7623    2.4877   -0.5548 H   0  0  0  0  0  0  0  0  0  0  0  0
    6.8073    1.0705   -0.8930 H   0  0  0  0  0  0  0  0  0  0  0  0
    6.3173   -2.0738   -1.1791 H   0  0  0  0  0  0  0  0  0  0  0  0
    4.8342   -3.0655   -1.0770 H   0  0  0  0  0  0  0  0  0  0  0  0
   -5.3418   -2.2059   -2.1296 H   0  0  0  0  0  0  0  0  0  0  0  0
   -6.4443   -0.8003   -2.2521 H   0  0  0  0  0  0  0  0  0  0  0  0
   -6.2670    2.2990   -1.5704 H   0  0  0  0  0  0  0  0  0  0  0  0
   -4.9151    3.3056   -0.9681 H   0  0  0  0  0  0  0  0  0  0  0  0
   -4.2973   -3.0577    2.3711 H   0  0  0  0  0  0  0  0  0  0  0  0
   -5.4068   -2.0300    3.3211 H   0  0  0  0  0  0  0  0  0  0  0  0
   -5.6259    1.1059    4.0509 H   0  0  0  0  0  0  0  0  0  0  0  0
   -4.5570    2.4615    3.5598 H   0  0  0  0  0  0  0  0  0  0  0  0
    1.1984   -0.8675    6.6601 H   0  0  0  0  0  0  0  0  0  0  0  0
    3.6448   -0.7518    5.7202 H   0  0  0  0  0  0  0  0  0  0  0  0
   -0.5188    0.7971    6.7299 H   0  0  0  0  0  0  0  0  0  0  0  0
   -0.3819    2.1009    5.5132 H   0  0  0  0  0  0  0  0  0  0  0  0
   -0.4697   -3.5332    5.0561 H   0  0  0  0  0  0  0  0  0  0  0  0
   -0.5345   -2.3855    6.4298 H   0  0  0  0  0  0  0  0  0  0  0  0
   -0.8754    1.3410   -0.0309 C   0  0  0  0  0  0  0  0  0  0  0  0
    0.5021    1.5187   -0.0830 C   0  0  0  0  0  0  0  0  0  0  0  0
    1.5015    0.5528   -0.0725 C   0  0  0  0  0  0  0  0  0  0  0  0
    1.3702   -0.8293   -0.0075 C   0  0  0  0  0  0  0  0  0  0  0  0
    0.2071   -1.5870    0.0632 C   0  0  0  0  0  3  0  0  0  0  0  0
   -1.1119   -1.1496    0.0863 C   0  0  0  0  0  0  0  0  0  0  0  0
   -1.5937    0.1535    0.0444 C   0  0  0  0  0  0  0  0  0  0  0  0
   -1.4677    2.2483   -0.0519 H   0  0  0  0  0  0  0  0  0  0  0  0
    0.8419    2.5463   -0.1391 H   0  0  0  0  0  0  0  0  0  0  0  0
    2.5175    0.9269   -0.1216 H   0  0  0  0  0  0  0  0  0  0  0  0
    2.2974   -1.3905   -0.0125 H   0  0  0  0  0  0  0  0  0  0  0  0
    0.3473   -2.6608    0.1060 H   0  0  0  0  0  0  0  0  0  0  0  0
   -1.8643   -1.9275    0.1447 H   0  0  0  0  0  0  0  0  0  0  0  0
   -2.6721    0.2573    0.0744 H   0  0  0  0  0  0  0  0  0  0  0  0
  1  5  1  0
  1 65  1  0
  2  1  1  0
  2  6  1  0
  2  3  1  0
  2 85  1  6
  3  4  1  0
  3  8  1  0
  3 86  1  6
  4  5  1  0
  5  9  2  0
  6 66  1  0
  6  7  1  0
  7 10  2  0
  8 52  1  0
  8  7  1  0
 11 15  1  0
 12 11  1  0
 12 16  1  0
 12 13  1  0
 12 87  1  6
 13 14  1  0
 13 18  1  0
 13 88  1  6
 14 69  1  0
 15 19  2  0
 15 14  1  0
 16 17  1  0
 17 18  1  0
 17 20  2  0
 18 70  1  0
 21 25  1  0
 22 21  1  0
 22 23  1  0
 22 89  1  1
 23 24  1  0
 23 28  1  0
 23 90  1  1
 24 51  1  0
 25 24  1  0
 26 22  1  0
 26 27  1  0
 27 28  1  0
 28 53  1  0
 29 25  2  0
 30 27  2  0
 31 84  1  0
 32 31  1  0
 32 33  1  0
 32 91  1  1
 33 34  1  0
 33 92  1  1
 34 35  1  0
 35 31  1  0
 36 32  1  0
 36 83  1  0
 37 36  1  0
 38 37  1  0
 38 33  1  0
 39 35  2  0
 40 37  2  0
 41 45  1  0
 42 41  1  0
 42 43  1  0
 42 93  1  1
 43 44  1  0
 43 48  1  0
 43 94  1  1
 44 71  1  0
 45 44  1  0
 46 42  1  0
 46 47  1  0
 47 50  2  0
 47 48  1  0
 48 72  1  0
 49 45  2  0
 51 80  1  0
 51 95  1  1
 51 96  1  0
 52 16  1  0
 52 97  1  6
 52 98  1  0
 53 76  1  0
 53 99  1  6
 53100  1  0
 54  4  1  0
 54 11  1  0
 54101  1  6
 54102  1  0
 55 59  1  0
 56 55  1  0
 56 60  1  0
 56 57  1  0
 56103  1  6
 57 58  1  0
 57 62  1  0
 57104  1  6
 58 68  1  0
 59 63  2  0
 59 58  1  0
 60 61  1  0
 61 64  2  0
 61 62  1  0
 62 67  1  0
 65 55  1  0
 65105  1  6
 65106  1  0
 66 60  1  0
 66107  1  1
 66108  1  0
 67 26  1  0
 67109  1  1
 67110  1  0
 68 21  1  0
 68111  1  6
 68112  1  0
 69 41  1  0
 69113  1  1
 69114  1  0
 70 46  1  0
 70115  1  6
 70116  1  0
 71 34  1  0
 71117  1  6
 71118  1  0
 72 38  1  0
 72119  1  1
 72120  1  0
 73 74  1  0
 73 83  1  0
 74 78  1  0
 74 75  1  0
 74121  1  1
 75 80  1  0
 75122  1  1
 76 77  1  0
 76 75  1  0
 77 73  1  0
 78 84  1  0
 79 78  1  0
 80 79  1  0
 81 77  2  0
 82 79  2  0
 83123  1  1
 83124  1  0
 84125  1  1
 84126  1  0
127128  2  0
128129  1  0
129130  2  0
130131  1  0
131132  1  0
132133  2  0
133127  1  0
127134  1  0
128135  1  0
129136  1  0
130137  1  0
131138  1  0
132139  1  0
133140  1  0
M  CHG  1 131   1
M  END
$$$$

     RDKit          3D

140161  0  0  1  0  0  0  0  0999 V2000
    1.3410   -0.5630   -5.0620 N   0  0  0  0  0  0  0  0  0  0  0  0
    1.2350    0.7530   -5.6450 C   0  0  1  0  0  0  0  0  0  0  0  0
   -0.3060    0.9780   -5.7310 C   0  0  1  0  0  0  0  0  0  0  0  0
   -0.8470   -0.3140   -5.4200 N   0  0  0  0  0  0  0  0  0  0  0  0
    0.1230   -1.2290   -5.0420 C   0  0  0  0  0  0  0  0  0  0  0  0
    1.6850    1.8550   -4.8460 N   0  0  0  0  0  0  0  0  0  0  0  0
    0.6440    2.6120   -4.3330 C   0  0  0  0  0  0  0  0  0  0  0  0
   -0.5370    2.0290   -4.7700 N   0  0  0  0  0  0  0  0  0  0  0  0
   -0.0530   -2.4000   -4.8020 O   0  0  0  0  0  0  0  0  0  0  0  0
    0.7490    3.6240   -3.6810 O   0  0  0  0  0  0  0  0  0  0  0  0
   -3.1110   -0.2710   -4.5300 N   0  0  0  0  0  0  0  0  0  0  0  0
   -3.6590    1.0500   -4.4030 C   0  0  1  0  0  0  0  0  0  0  0  0
   -4.7400    0.8890   -3.2890 C   0  0  1  0  0  0  0  0  0  0  0  0
   -4.5400   -0.4620   -2.8270 N   0  0  0  0  0  0  0  0  0  0  0  0
   -3.6610   -1.1740   -3.6330 C   0  0  0  0  0  0  0  0  0  0  0  0
   -2.7860    2.0670   -3.8730 N   0  0  0  0  0  0  0  0  0  0  0  0
   -3.2890    2.6520   -2.7200 C   0  0  0  0  0  0  0  0  0  0  0  0
   -4.4250    1.9420   -2.3680 N   0  0  0  0  0  0  0  0  0  0  0  0
   -3.4600   -2.3640   -3.6020 O   0  0  0  0  0  0  0  0  0  0  0  0
   -2.8550    3.6320   -2.1630 O   0  0  0  0  0  0  0  0  0  0  0  0
    4.9990   -1.6050    0.3100 N   0  0  0  0  0  0  0  0  0  0  0  0
    5.7500   -0.5370    0.9280 C   0  0  2  0  0  0  0  0  0  0  0  0
    5.2890   -0.6010    2.4160 C   0  0  2  0  0  0  0  0  0  0  0  0
    4.5660   -1.8370    2.4860 N   0  0  0  0  0  0  0  0  0  0  0  0
    4.4000   -2.4360    1.2470 C   0  0  0  0  0  0  0  0  0  0  0  0
    5.4160    0.8010    0.5360 N   0  0  0  0  0  0  0  0  0  0  0  0
    4.6970    1.4840    1.5040 C   0  0  0  0  0  0  0  0  0  0  0  0
    4.5220    0.6130    2.5710 N   0  0  0  0  0  0  0  0  0  0  0  0
    3.8850   -3.5070    1.0340 O   0  0  0  0  0  0  0  0  0  0  0  0
    4.3440    2.6380    1.4520 O   0  0  0  0  0  0  0  0  0  0  0  0
   -1.6400   -1.8800    4.8240 N   0  0  0  0  0  0  0  0  0  0  0  0
   -2.2420   -0.6820    5.3320 C   0  0  2  0  0  0  0  0  0  0  0  0
   -3.5860   -0.5950    4.5460 C   0  0  2  0  0  0  0  0  0  0  0  0
   -3.4410   -1.6150    3.5360 N   0  0  0  0  0  0  0  0  0  0  0  0
   -2.3460   -2.4350    3.7680 C   0  0  0  0  0  0  0  0  0  0  0  0
   -1.5920    0.5650    5.0070 N   0  0  0  0  0  0  0  0  0  0  0  0
   -2.4520    1.4580    4.3800 C   0  0  0  0  0  0  0  0  0  0  0  0
   -3.6170    0.7650    4.0920 N   0  0  0  0  0  0  0  0  0  0  0  0
   -2.0890   -3.4700    3.2020 O   0  0  0  0  0  0  0  0  0  0  0  0
   -2.2490    2.6310    4.1800 O   0  0  0  0  0  0  0  0  0  0  0  0
   -5.3360   -0.8900   -0.5730 N   0  0  0  0  0  0  0  0  0  0  0  0
   -5.8430    0.2690    0.1010 C   0  0  1  0  0  0  0  0  0  0  0  0
   -5.6090   -0.0600    1.6080 C   0  0  1  0  0  0  0  0  0  0  0  0
   -4.7930   -1.2490    1.5610 N   0  0  0  0  0  0  0  0  0  0  0  0
   -4.7210   -1.7890    0.2840 C   0  0  0  0  0  0  0  0  0  0  0  0
   -5.1160    1.5030   -0.0830 N   0  0  0  0  0  0  0  0  0  0  0  0
   -4.7190    2.0630    1.1250 C   0  0  0  0  0  0  0  0  0  0  0  0
   -4.9900    1.1310    2.1140 N   0  0  0  0  0  0  0  0  0  0  0  0
   -4.2650   -2.8660   -0.0170 O   0  0  0  0  0  0  0  0  0  0  0  0
   -4.2810    3.1760    1.2910 O   0  0  0  0  0  0  0  0  0  0  0  0
    4.1080   -2.4590    3.6970 C   0  0  2  0  0  0  0  0  0  0  0  0
   -1.7830    2.7370   -4.6570 C   0  0  2  0  0  0  0  0  0  0  0  0
    4.0850    1.1110    3.8490 C   0  0  2  0  0  0  0  0  0  0  0  0
   -2.2240   -0.6910   -5.5800 C   0  0  2  0  0  0  0  0  0  0  0  0
    3.4340   -0.9760   -3.9100 N   0  0  0  0  0  0  0  0  0  0  0  0
    4.3330    0.1440   -3.8890 C   0  0  2  0  0  0  0  0  0  0  0  0
    5.2040   -0.1130   -2.6190 C   0  0  2  0  0  0  0  0  0  0  0  0
    4.6440   -1.3190   -2.0690 N   0  0  0  0  0  0  0  0  0  0  0  0
    3.6480   -1.8630   -2.8660 C   0  0  0  0  0  0  0  0  0  0  0  0
    3.7520    1.4370   -3.6380 N   0  0  0  0  0  0  0  0  0  0  0  0
    4.2370    2.0290   -2.4810 C   0  0  0  0  0  0  0  0  0  0  0  0
    5.0350    1.0890   -1.8480 N   0  0  0  0  0  0  0  0  0  0  0  0
    3.1120   -2.9340   -2.7150 O   0  0  0  0  0  0  0  0  0  0  0  0
    4.0500    3.1670   -2.1250 O   0  0  0  0  0  0  0  0  0  0  0  0
    2.5730   -1.3060   -5.0100 C   0  0  2  0  0  0  0  0  0  0  0  0
    3.0600    2.2120   -4.6330 C   0  0  2  0  0  0  0  0  0  0  0  0
    5.8190    1.4280   -0.6920 C   0  0  1  0  0  0  0  0  0  0  0  0
    5.2590   -2.0850   -1.0220 C   0  0  1  0  0  0  0  0  0  0  0  0
   -5.4730   -1.1550   -1.9770 C   0  0  2  0  0  0  0  0  0  0  0  0
   -5.2450    2.3290   -1.2550 C   0  0  2  0  0  0  0  0  0  0  0  0
   -4.5280   -2.0700    2.7120 C   0  0  1  0  0  0  0  0  0  0  0  0
   -4.7580    1.4120    3.5050 C   0  0  1  0  0  0  0  0  0  0  0  0
    0.8230    0.5110    5.2210 N   0  0  0  0  0  0  0  0  0  0  0  0
    1.3580   -0.7650    5.6070 C   0  0  2  0  0  0  0  0  0  0  0  0
    2.8150   -0.7320    5.0450 C   0  0  2  0  0  0  0  0  0  0  0  0
    2.8710    0.5230    4.3410 N   0  0  0  0  0  0  0  0  0  0  0  0
    1.7250    1.2860    4.5100 C   0  0  0  0  0  0  0  0  0  0  0  0
    0.7840   -1.9250    4.9760 N   0  0  0  0  0  0  0  0  0  0  0  0
    1.7160   -2.6590    4.2570 C   0  0  0  0  0  0  0  0  0  0  0  0
    2.8920   -1.9250    4.2480 N   0  0  0  0  0  0  0  0  0  0  0  0
    1.5670    2.4300    4.1590 O   0  0  0  0  0  0  0  0  0  0  0  0
    1.5540   -3.7580    3.7810 O   0  0  0  0  0  0  0  0  0  0  0  0
   -0.4220    1.0470    5.6940 C   0  0  2  0  0  0  0  0  0  0  0  0
   -0.4700   -2.5100    5.3690 C   0  0  2  0  0  0  0  0  0  0  0  0
    1.8262    0.7519   -6.5368 H   0  0  0  0  0  0  0  0  0  0  0  0
   -0.7495    1.2891   -6.6537 H   0  0  0  0  0  0  0  0  0  0  0  0
   -3.9500    1.3636   -5.3837 H   0  0  0  0  0  0  0  0  0  0  0  0
   -5.7768    0.9872   -3.5345 H   0  0  0  0  0  0  0  0  0  0  0  0
    6.7798   -0.6871    0.6794 H   0  0  0  0  0  0  0  0  0  0  0  0
    6.0161   -0.6201    3.2007 H   0  0  0  0  0  0  0  0  0  0  0  0
   -2.2502   -0.7649    6.3988 H   0  0  0  0  0  0  0  0  0  0  0  0
   -4.5118   -0.7776    5.0504 H   0  0  0  0  0  0  0  0  0  0  0  0
   -6.8362    0.4316   -0.2622 H   0  0  0  0  0  0  0  0  0  0  0  0
   -6.4428   -0.2737    2.2436 H   0  0  0  0  0  0  0  0  0  0  0  0
    4.8774   -2.3529    4.4330 H   0  0  0  0  0  0  0  0  0  0  0  0
    3.8919   -3.4751    3.4407 H   0  0  0  0  0  0  0  0  0  0  0  0
   -2.1734    2.8841   -5.6423 H   0  0  0  0  0  0  0  0  0  0  0  0
   -1.5650    3.6534   -4.1495 H   0  0  0  0  0  0  0  0  0  0  0  0
    3.9317    2.1662    3.7604 H   0  0  0  0  0  0  0  0  0  0  0  0
    4.8506    0.8532    4.5506 H   0  0  0  0  0  0  0  0  0  0  0  0
   -2.2678   -1.7584   -5.6401 H   0  0  0  0  0  0  0  0  0  0  0  0
   -2.5621   -0.1925   -6.4644 H   0  0  0  0  0  0  0  0  0  0  0  0
    4.7992    0.1897   -4.8510 H   0  0  0  0  0  0  0  0  0  0  0  0
    6.2568   -0.2736   -2.7228 H   0  0  0  0  0  0  0  0  0  0  0  0
    3.1093   -1.1235   -5.9177 H   0  0  0  0  0  0  0  0  0  0  0  0
    2.2985   -2.3317   -4.8778 H   0  0  0  0  0  0  0  0  0  0  0  0
    3.0918    3.2385   -4.3327 H   0  0  0  0  0  0  0  0  0  0  0  0
    3.5614    2.0187   -5.5583 H   0  0  0  0  0  0  0  0  0  0  0  0
    5.7623    2.4877   -0.5548 H   0  0  0  0  0  0  0  0  0  0  0  0
    6.8073    1.0705   -0.8930 H   0  0  0  0  0  0  0  0  0  0  0  0
    6.3173   -2.0738   -1.1791 H   0  0  0  0  0  0  0  0  0  0  0  0
    4.8342   -3.0655   -1.0770 H   0  0  0  0  0  0  0  0  0  0  0  0
   -5.3418   -2.2059   -2.1296 H   0  0  0  0  0  0  0  0  0  0  0  0
   -6.4443   -0.8003   -2.2521 H   0  0  0  0  0  0  0  0  0  0  0  0
   -6.2670    2.2990   -1.5704 H   0  0  0  0  0  0  0  0  0  0  0  0
   -4.9151    3.3056   -0.9681 H   0  0  0  0  0  0  0  0  0  0  0  0
   -4.2973   -3.0577    2.3711 H   0  0  0  0  0  0  0  0  0  0  0  0
   -5.4068   -2.0300    3.3211 H   0  0  0  0  0  0  0  0  0  0  0  0
   -5.6259    1.1059    4.0509 H   0  0  0  0  0  0  0  0  0  0  0  0
   -4.5570    2.4615    3.5598 H   0  0  0  0  0  0  0  0  0  0  0  0
    1.1984   -0.8675    6.6601 H   0  0  0  0  0  0  0  0  0  0  0  0
    3.6448   -0.7518    5.7202 H   0  0  0  0  0  0  0  0  0  0  0  0
   -0.5188    0.7971    6.7299 H   0  0  0  0  0  0  0  0  0  0  0  0
   -0.3819    2.1009    5.5132 H   0  0  0  0  0  0  0  0  0  0  0  0
   -0.4697   -3.5332    5.0561 H   0  0  0  0  0  0  0  0  0  0  0  0
   -0.5345   -2.3855    6.4298 H   0  0  0  0  0  0  0  0  0  0  0  0
    1.2491    0.5597   -0.8319 C   0  0  0  0  0  0  0  0  0  0  0  0
    1.3692    0.6219    0.5514 C   0  0  0  0  0  0  0  0  0  0  0  0
    0.4583    0.2157    1.5195 C   0  0  0  0  0  0  0  0  0  0  0  0
   -0.7977   -0.3528    1.3433 C   0  0  0  0  0  0  0  0  0  0  0  0
   -1.4530   -0.6557    0.1556 C   0  0  0  0  0  3  0  0  0  0  0  0
   -1.0142   -0.4648   -1.1493 C   0  0  0  0  0  0  0  0  0  0  0  0
    0.1884    0.0761   -1.5888 C   0  0  0  0  0  0  0  0  0  0  0  0
    2.0943    0.9384   -1.3948 H   0  0  0  0  0  0  0  0  0  0  0  0
    2.2956    1.0427    0.9246 H   0  0  0  0  0  0  0  0  0  0  0  0
    0.7684    0.3617    2.5477 H   0  0  0  0  0  0  0  0  0  0  0  0
   -1.3375   -0.5916    2.2523 H   0  0  0  0  0  0  0  0  0  0  0  0
   -2.4362   -1.0994    0.2609 H   0  0  0  0  0  0  0  0  0  0  0  0
   -1.7004   -0.7794   -1.9270 H   0  0  0  0  0  0  0  0  0  0  0  0
    0.3159    0.1276   -2.6638 H   0  0  0  0  0  0  0  0  0  0  0  0
  1  5  1  0
  1 65  1  0
  2  1  1  0
  2  6  1  0
  2  3  1  0
  2 85  1  6
  3  4  1  0
  3  8  1  0
  3 86  1  6
  4  5  1  0
  5  9  2  0
  6 66  1  0
  6  7  1  0
  7 10  2  0
  8 52  1  0
  8  7  1  0
 11 15  1  0
 12 11  1  0
 12 16  1  0
 12 13  1  0
 12 87  1  6
 13 14  1  0
 13 18  1  0
 13 88  1  6
 14 69  1  0
 15 19  2  0
 15 14  1  0
 16 17  1  0
 17 18  1  0
 17 20  2  0
 18 70  1  0
 21 25  1  0
 22 21  1  0
 22 23  1  0
 22 89  1  1
 23 24  1  0
 23 28  1  0
 23 90  1  1
 24 51  1  0
 25 24  1  0
 26 22  1  0
 26 27  1  0
 27 28  1  0
 28 53  1  0
 29 25  2  0
 30 27  2  0
 31 84  1  0
 32 31  1  0
 32 33  1  0
 32 91  1  1
 33 34  1  0
 33 92  1  1
 34 35  1  0
 35 31  1  0
 36 32  1  0
 36 83  1  0
 37 36  1  0
 38 37  1  0
 38 33  1  0
 39 35  2  0
 40 37  2  0
 41 45  1  0
 42 41  1  0
 42 43  1  0
 42 93  1  1
 43 44  1  0
 43 48  1  0
 43 94  1  1
 44 71  1  0
 45 44  1  0
 46 42  1  0
 46 47  1  0
 47 50  2  0
 47 48  1  0
 48 72  1  0
 49 45  2  0
 51 80  1  0
 51 95  1  1
 51 96  1  0
 52 16  1  0
 52 97  1  6
 52 98  1  0
 53 76  1  0
 53 99  1  6
 53100  1  0
 54  4  1  0
 54 11  1  0
 54101  1  6
 54102  1  0
 55 59  1  0
 56 55  1  0
 56 60  1  0
 56 57  1  0
 56103  1  6
 57 58  1  0
 57 62  1  0
 57104  1  6
 58 68  1  0
 59 63  2  0
 59 58  1  0
 60 61  1  0
 61 64  2  0
 61 62  1  0
 62 67  1  0
 65 55  1  0
 65105  1  6
 65106  1  0
 66 60  1  0
 66107  1  1
 66108  1  0
 67 26  1  0
 67109  1  1
 67110  1  0
 68 21  1  0
 68111  1  6
 68112  1  0
 69 41  1  0
 69113  1  1
 69114  1  0
 70 46  1  0
 70115  1  6
 70116  1  0
 71 34  1  0
 71117  1  6
 71118  1  0
 72 38  1  0
 72119  1  1
 72120  1  0
 73 74  1  0
 73 83  1  0
 74 78  1  0
 74 75  1  0
 74121  1  1
 75 80  1  0
 75122  1  1
 76 77  1  0
 76 75  1  0
 77 73  1  0
 78 84  1  0
 79 78  1  0
 80 79  1  0
 81 77  2  0
 82 79  2  0
 83123  1  1
 83124  1  0
 84125  1  1
 84126  1  0
127128  2  0
128129  1  0
129130  2  0
130131  1  0
131132  1  0
132133  2  0
133127  1  0
127134  1  0
128135  1  0
129136  1  0
130137  1  0
131138  1  0
132139  1  0
133140  1  0
M  CHG  1 131   1
M  END
$$$$

     RDKit          3D

140161  0  0  1  0  0  0  0  0999 V2000
    1.3410   -0.5630   -5.0620 N   0  0  0  0  0  0  0  0  0  0  0  0
    1.2350    0.7530   -5.6450 C   0  0  1  0  0  0  0  0  0  0  0  0
   -0.3060    0.9780   -5.7310 C   0  0  1  0  0  0  0  0  0  0  0  0
   -0.8470   -0.3140   -5.4200 N   0  0  0  0  0  0  0  0  0  0  0  0
    0.1230   -1.2290   -5.0420 C   0  0  0  0  0  0  0  0  0  0  0  0
    1.6850    1.8550   -4.8460 N   0  0  0  0  0  0  0  0  0  0  0  0
    0.6440    2.6120   -4.3330 C   0  0  0  0  0  0  0  0  0  0  0  0
   -0.5370    2.0290   -4.7700 N   0  0  0  0  0  0  0  0  0  0  0  0
   -0.0530   -2.4000   -4.8020 O   0  0  0  0  0  0  0  0  0  0  0  0
    0.7490    3.6240   -3.6810 O   0  0  0  0  0  0  0  0  0  0  0  0
   -3.1110   -0.2710   -4.5300 N   0  0  0  0  0  0  0  0  0  0  0  0
   -3.6590    1.0500   -4.4030 C   0  0  1  0  0  0  0  0  0  0  0  0
   -4.7400    0.8890   -3.2890 C   0  0  1  0  0  0  0  0  0  0  0  0
   -4.5400   -0.4620   -2.8270 N   0  0  0  0  0  0  0  0  0  0  0  0
   -3.6610   -1.1740   -3.6330 C   0  0  0  0  0  0  0  0  0  0  0  0
   -2.7860    2.0670   -3.8730 N   0  0  0  0  0  0  0  0  0  0  0  0
   -3.2890    2.6520   -2.7200 C   0  0  0  0  0  0  0  0  0  0  0  0
   -4.4250    1.9420   -2.3680 N   0  0  0  0  0  0  0  0  0  0  0  0
   -3.4600   -2.3640   -3.6020 O   0  0  0  0  0  0  0  0  0  0  0  0
   -2.8550    3.6320   -2.1630 O   0  0  0  0  0  0  0  0  0  0  0  0
    4.9990   -1.6050    0.3100 N   0  0  0  0  0  0  0  0  0  0  0  0
    5.7500   -0.5370    0.9280 C   0  0  2  0  0  0  0  0  0  0  0  0
    5.2890   -0.6010    2.4160 C   0  0  2  0  0  0  0  0  0  0  0  0
    4.5660   -1.8370    2.4860 N   0  0  0  0  0  0  0  0  0  0  0  0
    4.4000   -2.4360    1.2470 C   0  0  0  0  0  0  0  0  0  0  0  0
    5.4160    0.8010    0.5360 N   0  0  0  0  0  0  0  0  0  0  0  0
    4.6970    1.4840    1.5040 C   0  0  0  0  0  0  0  0  0  0  0  0
    4.5220    0.6130    2.5710 N   0  0  0  0  0  0  0  0  0  0  0  0
    3.8850   -3.5070    1.0340 O   0  0  0  0  0  0  0  0  0  0  0  0
    4.3440    2.6380    1.4520 O   0  0  0  0  0  0  0  0  0  0  0  0
   -1.6400   -1.8800    4.8240 N   0  0  0  0  0  0  0  0  0  0  0  0
   -2.2420   -0.6820    5.3320 C   0  0  2  0  0  0  0  0  0  0  0  0
   -3.5860   -0.5950    4.5460 C   0  0  2  0  0  0  0  0  0  0  0  0
   -3.4410   -1.6150    3.5360 N   0  0  0  0  0  0  0  0  0  0  0  0
   -2.3460   -2.4350    3.7680 C   0  0  0  0  0  0  0  0  0  0  0  0
   -1.5920    0.5650    5.0070 N   0  0  0  0  0  0  0  0  0  0  0  0
   -2.4520    1.4580    4.3800 C   0  0  0  0  0  0  0  0  0  0  0  0
   -3.6170    0.7650    4.0920 N   0  0  0  0  0  0  0  0  0  0  0  0
   -2.0890   -3.4700    3.2020 O   0  0  0  0  0  0  0  0  0  0  0  0
   -2.2490    2.6310    4.1800 O   0  0  0  0  0  0  0  0  0  0  0  0
   -5.3360   -0.8900   -0.5730 N   0  0  0  0  0  0  0  0  0  0  0  0
   -5.8430    0.2690    0.1010 C   0  0  1  0  0  0  0  0  0  0  0  0
   -5.6090   -0.0600    1.6080 C   0  0  1  0  0  0  0  0  0  0  0  0
   -4.7930   -1.2490    1.5610 N   0  0  0  0  0  0  0  0  0  0  0  0
   -4.7210   -1.7890    0.2840 C   0  0  0  0  0  0  0  0  0  0  0  0
   -5.1160    1.5030   -0.0830 N   0  0  0  0  0  0  0  0  0  0  0  0
   -4.7190    2.0630    1.1250 C   0  0  0  0  0  0  0  0  0  0  0  0
   -4.9900    1.1310    2.1140 N   0  0  0  0  0  0  0  0  0  0  0  0
   -4.2650   -2.8660   -0.0170 O   0  0  0  0  0  0  0  0  0  0  0  0
   -4.2810    3.1760    1.2910 O   0  0  0  0  0  0  0  0  0  0  0  0
    4.1080   -2.4590    3.6970 C   0  0  2  0  0  0  0  0  0  0  0  0
   -1.7830    2.7370   -4.6570 C   0  0  2  0  0  0  0  0  0  0  0  0
    4.0850    1.1110    3.8490 C   0  0  2  0  0  0  0  0  0  0  0  0
   -2.2240   -0.6910   -5.5800 C   0  0  2  0  0  0  0  0  0  0  0  0
    3.4340   -0.9760   -3.9100 N   0  0  0  0  0  0  0  0  0  0  0  0
    4.3330    0.1440   -3.8890 C   0  0  2  0  0  0  0  0  0  0  0  0
    5.2040   -0.1130   -2.6190 C   0  0  2  0  0  0  0  0  0  0  0  0
    4.6440   -1.3190   -2.0690 N   0  0  0  0  0  0  0  0  0  0  0  0
    3.6480   -1.8630   -2.8660 C   0  0  0  0  0  0  0  0  0  0  0  0
    3.7520    1.4370   -3.6380 N   0  0  0  0  0  0  0  0  0  0  0  0
    4.2370    2.0290   -2.4810 C   0  0  0  0  0  0  0  0  0  0  0  0
    5.0350    1.0890   -1.8480 N   0  0  0  0  0  0  0  0  0  0  0  0
    3.1120   -2.9340   -2.7150 O   0  0  0  0  0  0  0  0  0  0  0  0
    4.0500    3.1670   -2.1250 O   0  0  0  0  0  0  0  0  0  0  0  0
    2.5730   -1.3060   -5.0100 C   0  0  2  0  0  0  0  0  0  0  0  0
    3.0600    2.2120   -4.6330 C   0  0  2  0  0  0  0  0  0  0  0  0
    5.8190    1.4280   -0.6920 C   0  0  1  0  0  0  0  0  0  0  0  0
    5.2590   -2.0850   -1.0220 C   0  0  1  0  0  0  0  0  0  0  0  0
   -5.4730   -1.1550   -1.9770 C   0  0  2  0  0  0  0  0  0  0  0  0
   -5.2450    2.3290   -1.2550 C   0  0  2  0  0  0  0  0  0  0  0  0
   -4.5280   -2.0700    2.7120 C   0  0  1  0  0  0  0  0  0  0  0  0
   -4.7580    1.4120    3.5050 C   0  0  1  0  0  0  0  0  0  0  0  0
    0.8230    0.5110    5.2210 N   0  0  0  0  0  0  0  0  0  0  0  0
    1.3580   -0.7650    5.6070 C   0  0  2  0  0  0  0  0  0  0  0  0
    2.8150   -0.7320    5.0450 C   0  0  2  0  0  0  0  0  0  0  0  0
    2.8710    0.5230    4.3410 N   0  0  0  0  0  0  0  0  0  0  0  0
    1.7250    1.2860    4.5100 C   0  0  0  0  0  0  0  0  0  0  0  0
    0.7840   -1.9250    4.9760 N   0  0  0  0  0  0  0  0  0  0  0  0
    1.7160   -2.6590    4.2570 C   0  0  0  0  0  0  0  0  0  0  0  0
    2.8920   -1.9250    4.2480 N   0  0  0  0  0  0  0  0  0  0  0  0
    1.5670    2.4300    4.1590 O   0  0  0  0  0  0  0  0  0  0  0  0
    1.5540   -3.7580    3.7810 O   0  0  0  0  0  0  0  0  0  0  0  0
   -0.4220    1.0470    5.6940 C   0  0  2  0  0  0  0  0  0  0  0  0
   -0.4700   -2.5100    5.3690 C   0  0  2  0  0  0  0  0  0  0  0  0
    1.8262    0.7519   -6.5368 H   0  0  0  0  0  0  0  0  0  0  0  0
   -0.7495    1.2891   -6.6537 H   0  0  0  0  0  0  0  0  0  0  0  0
   -3.9500    1.3636   -5.3837 H   0  0  0  0  0  0  0  0  0  0  0  0
   -5.7768    0.9872   -3.5345 H   0  0  0  0  0  0  0  0  0  0  0  0
    6.7798   -0.6871    0.6794 H   0  0  0  0  0  0  0  0  0  0  0  0
    6.0161   -0.6201    3.2007 H   0  0  0  0  0  0  0  0  0  0  0  0
   -2.2502   -0.7649    6.3988 H   0  0  0  0  0  0  0  0  0  0  0  0
   -4.5118   -0.7776    5.0504 H   0  0  0  0  0  0  0  0  0  0  0  0
   -6.8362    0.4316   -0.2622 H   0  0  0  0  0  0  0  0  0  0  0  0
   -6.4428   -0.2737    2.2436 H   0  0  0  0  0  0  0  0  0  0  0  0
    4.8774   -2.3529    4.4330 H   0  0  0  0  0  0  0  0  0  0  0  0
    3.8919   -3.4751    3.4407 H   0  0  0  0  0  0  0  0  0  0  0  0
   -2.1734    2.8841   -5.6423 H   0  0  0  0  0  0  0  0  0  0  0  0
   -1.5650    3.6534   -4.1495 H   0  0  0  0  0  0  0  0  0  0  0  0
    3.9317    2.1662    3.7604 H   0  0  0  0  0  0  0  0  0  0  0  0
    4.8506    0.8532    4.5506 H   0  0  0  0  0  0  0  0  0  0  0  0
   -2.2678   -1.7584   -5.6401 H   0  0  0  0  0  0  0  0  0  0  0  0
   -2.5621   -0.1925   -6.4644 H   0  0  0  0  0  0  0  0  0  0  0  0
    4.7992    0.1897   -4.8510 H   0  0  0  0  0  0  0  0  0  0  0  0
    6.2568   -0.2736   -2.7228 H   0  0  0  0  0  0  0  0  0  0  0  0
    3.1093   -1.1235   -5.9177 H   0  0  0  0  0  0  0  0  0  0  0  0
    2.2985   -2.3317   -4.8778 H   0  0  0  0  0  0  0  0  0  0  0  0
    3.0918    3.2385   -4.3327 H   0  0  0  0  0  0  0  0  0  0  0  0
    3.5614    2.0187   -5.5583 H   0  0  0  0  0  0  0  0  0  0  0  0
    5.7623    2.4877   -0.5548 H   0  0  0  0  0  0  0  0  0  0  0  0
    6.8073    1.0705   -0.8930 H   0  0  0  0  0  0  0  0  0  0  0  0
    6.3173   -2.0738   -1.1791 H   0  0  0  0  0  0  0  0  0  0  0  0
    4.8342   -3.0655   -1.0770 H   0  0  0  0  0  0  0  0  0  0  0  0
   -5.3418   -2.2059   -2.1296 H   0  0  0  0  0  0  0  0  0  0  0  0
   -6.4443   -0.8003   -2.2521 H   0  0  0  0  0  0  0  0  0  0  0  0
   -6.2670    2.2990   -1.5704 H   0  0  0  0  0  0  0  0  0  0  0  0
   -4.9151    3.3056   -0.9681 H   0  0  0  0  0  0  0  0  0  0  0  0
   -4.2973   -3.0577    2.3711 H   0  0  0  0  0  0  0  0  0  0  0  0
   -5.4068   -2.0300    3.3211 H   0  0  0  0  0  0  0  0  0  0  0  0
   -5.6259    1.1059    4.0509 H   0  0  0  0  0  0  0  0  0  0  0  0
   -4.5570    2.4615    3.5598 H   0  0  0  0  0  0  0  0  0  0  0  0
    1.1984   -0.8675    6.6601 H   0  0  0  0  0  0  0  0  0  0  0  0
    3.6448   -0.7518    5.7202 H   0  0  0  0  0  0  0  0  0  0  0  0
   -0.5188    0.7971    6.7299 H   0  0  0  0  0  0  0  0  0  0  0  0
   -0.3819    2.1009    5.5132 H   0  0  0  0  0  0  0  0  0  0  0  0
   -0.4697   -3.5332    5.0561 H   0  0  0  0  0  0  0  0  0  0  0  0
   -0.5345   -2.3855    6.4298 H   0  0  0  0  0  0  0  0  0  0  0  0
   -0.0593   -1.3675   -0.8319 C   0  0  0  0  0  0  0  0  0  0  0  0
   -0.0575   -1.5027    0.5514 C   0  0  0  0  0  0  0  0  0  0  0  0
   -0.0125   -0.5064    1.5195 C   0  0  0  0  0  0  0  0  0  0  0  0
    0.0420    0.8713    1.3433 C   0  0  0  0  0  0  0  0  0  0  0  0
    0.0648    1.5928    0.1556 C   0  0  0  0  0  3  0  0  0  0  0  0
    0.0389    1.1149   -1.1493 C   0  0  0  0  0  0  0  0  0  0  0  0
   -0.0164   -0.2025   -1.5888 C   0  0  0  0  0  0  0  0  0  0  0  0
   -0.0994   -2.2927   -1.3948 H   0  0  0  0  0  0  0  0  0  0  0  0
   -0.0965   -2.5195    0.9246 H   0  0  0  0  0  0  0  0  0  0  0  0
   -0.0209   -0.8490    2.5477 H   0  0  0  0  0  0  0  0  0  0  0  0
    0.0704    1.4608    2.2523 H   0  0  0  0  0  0  0  0  0  0  0  0
    0.1087    2.6706    0.2609 H   0  0  0  0  0  0  0  0  0  0  0  0
    0.0651    1.8694   -1.9270 H   0  0  0  0  0  0  0  0  0  0  0  0
   -0.0275   -0.3395   -2.6638 H   0  0  0  0  0  0  0  0  0  0  0  0
  1  5  1  0
  1 65  1  0
  2  1  1  0
  2  6  1  0
  2  3  1  0
  2 85  1  6
  3  4  1  0
  3  8  1  0
  3 86  1  6
  4  5  1  0
  5  9  2  0
  6 66  1  0
  6  7  1  0
  7 10  2  0
  8 52  1  0
  8  7  1  0
 11 15  1  0
 12 11  1  0
 12 16  1  0
 12 13  1  0
 12 87  1  6
 13 14  1  0
 13 18  1  0
 13 88  1  6
 14 69  1  0
 15 19  2  0
 15 14  1  0
 16 17  1  0
 17 18  1  0
 17 20  2  0
 18 70  1  0
 21 25  1  0
 22 21  1  0
 22 23  1  0
 22 89  1  1
 23 24  1  0
 23 28  1  0
 23 90  1  1
 24 51  1  0
 25 24  1  0
 26 22  1  0
 26 27  1  0
 27 28  1  0
 28 53  1  0
 29 25  2  0
 30 27  2  0
 31 84  1  0
 32 31  1  0
 32 33  1  0
 32 91  1  1
 33 34  1  0
 33 92  1  1
 34 35  1  0
 35 31  1  0
 36 32  1  0
 36 83  1  0
 37 36  1  0
 38 37  1  0
 38 33  1  0
 39 35  2  0
 40 37  2  0
 41 45  1  0
 42 41  1  0
 42 43  1  0
 42 93  1  1
 43 44  1  0
 43 48  1  0
 43 94  1  1
 44 71  1  0
 45 44  1  0
 46 42  1  0
 46 47  1  0
 47 50  2  0
 47 48  1  0
 48 72  1  0
 49 45  2  0
 51 80  1  0
 51 95  1  1
 51 96  1  0
 52 16  1  0
 52 97  1  6
 52 98  1  0
 53 76  1  0
 53 99  1  6
 53100  1  0
 54  4  1  0
 54 11  1  0
 54101  1  6
 54102  1  0
 55 59  1  0
 56 55  1  0
 56 60  1  0
 56 57  1  0
 56103  1  6
 57 58  1  0
 57 62  1  0
 57104  1  6
 58 68  1  0
 59 63  2  0
 59 58  1  0
 60 61  1  0
 61 64  2  0
 61 62  1  0
 62 67  1  0
 65 55  1  0
 65105  1  6
 65106  1  0
 66 60  1  0
 66107  1  1
 66108  1  0
 67 26  1  0
 67109  1  1
 67110  1  0
 68 21  1  0
 68111  1  6
 68112  1  0
 69 41  1  0
 69113  1  1
 69114  1  0
 70 46  1  0
 70115  1  6
 70116  1  0
 71 34  1  0
 71117  1  6
 71118  1  0
 72 38  1  0
 72119  1  1
 72120  1  0
 73 74  1  0
 73 83  1  0
 74 78  1  0
 74 75  1  0
 74121  1  1
 75 80  1  0
 75122  1  1
 76 77  1  0
 76 75  1  0
 77 73  1  0
 78 84  1  0
 79 78  1  0
 80 79  1  0
 81 77  2  0
 82 79  2  0
 83123  1  1
 83124  1  0
 84125  1  1
 84126  1  0
127128  2  0
128129  1  0
129130  2  0
130131  1  0
131132  1  0
132133  2  0
133127  1  0
127134  1  0
128135  1  0
129136  1  0
130137  1  0
131138  1  0
132139  1  0
133140  1  0
M  CHG  1 131   1
M  END
$$$$

     RDKit          3D

140161  0  0  1  0  0  0  0  0999 V2000
    1.3410   -0.5630   -5.0620 N   0  0  0  0  0  0  0  0  0  0  0  0
    1.2350    0.7530   -5.6450 C   0  0  1  0  0  0  0  0  0  0  0  0
   -0.3060    0.9780   -5.7310 C   0  0  1  0  0  0  0  0  0  0  0  0
   -0.8470   -0.3140   -5.4200 N   0  0  0  0  0  0  0  0  0  0  0  0
    0.1230   -1.2290   -5.0420 C   0  0  0  0  0  0  0  0  0  0  0  0
    1.6850    1.8550   -4.8460 N   0  0  0  0  0  0  0  0  0  0  0  0
    0.6440    2.6120   -4.3330 C   0  0  0  0  0  0  0  0  0  0  0  0
   -0.5370    2.0290   -4.7700 N   0  0  0  0  0  0  0  0  0  0  0  0
   -0.0530   -2.4000   -4.8020 O   0  0  0  0  0  0  0  0  0  0  0  0
    0.7490    3.6240   -3.6810 O   0  0  0  0  0  0  0  0  0  0  0  0
   -3.1110   -0.2710   -4.5300 N   0  0  0  0  0  0  0  0  0  0  0  0
   -3.6590    1.0500   -4.4030 C   0  0  1  0  0  0  0  0  0  0  0  0
   -4.7400    0.8890   -3.2890 C   0  0  1  0  0  0  0  0  0  0  0  0
   -4.5400   -0.4620   -2.8270 N   0  0  0  0  0  0  0  0  0  0  0  0
   -3.6610   -1.1740   -3.6330 C   0  0  0  0  0  0  0  0  0  0  0  0
   -2.7860    2.0670   -3.8730 N   0  0  0  0  0  0  0  0  0  0  0  0
   -3.2890    2.6520   -2.7200 C   0  0  0  0  0  0  0  0  0  0  0  0
   -4.4250    1.9420   -2.3680 N   0  0  0  0  0  0  0  0  0  0  0  0
   -3.4600   -2.3640   -3.6020 O   0  0  0  0  0  0  0  0  0  0  0  0
   -2.8550    3.6320   -2.1630 O   0  0  0  0  0  0  0  0  0  0  0  0
    4.9990   -1.6050    0.3100 N   0  0  0  0  0  0  0  0  0  0  0  0
    5.7500   -0.5370    0.9280 C   0  0  2  0  0  0  0  0  0  0  0  0
    5.2890   -0.6010    2.4160 C   0  0  2  0  0  0  0  0  0  0  0  0
    4.5660   -1.8370    2.4860 N   0  0  0  0  0  0  0  0  0  0  0  0
    4.4000   -2.4360    1.2470 C   0  0  0  0  0  0  0  0  0  0  0  0
    5.4160    0.8010    0.5360 N   0  0  0  0  0  0  0  0  0  0  0  0
    4.6970    1.4840    1.5040 C   0  0  0  0  0  0  0  0  0  0  0  0
    4.5220    0.6130    2.5710 N   0  0  0  0  0  0  0  0  0  0  0  0
    3.8850   -3.5070    1.0340 O   0  0  0  0  0  0  0  0  0  0  0  0
    4.3440    2.6380    1.4520 O   0  0  0  0  0  0  0  0  0  0  0  0
   -1.6400   -1.8800    4.8240 N   0  0  0  0  0  0  0  0  0  0  0  0
   -2.2420   -0.6820    5.3320 C   0  0  2  0  0  0  0  0  0  0  0  0
   -3.5860   -0.5950    4.5460 C   0  0  2  0  0  0  0  0  0  0  0  0
   -3.4410   -1.6150    3.5360 N   0  0  0  0  0  0  0  0  0  0  0  0
   -2.3460   -2.4350    3.7680 C   0  0  0  0  0  0  0  0  0  0  0  0
   -1.5920    0.5650    5.0070 N   0  0  0  0  0  0  0  0  0  0  0  0
   -2.4520    1.4580    4.3800 C   0  0  0  0  0  0  0  0  0  0  0  0
   -3.6170    0.7650    4.0920 N   0  0  0  0  0  0  0  0  0  0  0  0
   -2.0890   -3.4700    3.2020 O   0  0  0  0  0  0  0  0  0  0  0  0
   -2.2490    2.6310    4.1800 O   0  0  0  0  0  0  0  0  0  0  0  0
   -5.3360   -0.8900   -0.5730 N   0  0  0  0  0  0  0  0  0  0  0  0
   -5.8430    0.2690    0.1010 C   0  0  1  0  0  0  0  0  0  0  0  0
   -5.6090   -0.0600    1.6080 C   0  0  1  0  0  0  0  0  0  0  0  0
   -4.7930   -1.2490    1.5610 N   0  0  0  0  0  0  0  0  0  0  0  0
   -4.7210   -1.7890    0.2840 C   0  0  0  0  0  0  0  0  0  0  0  0
   -5.1160    1.5030   -0.0830 N   0  0  0  0  0  0  0  0  0  0  0  0
   -4.7190    2.0630    1.1250 C   0  0  0  0  0  0  0  0  0  0  0  0
   -4.9900    1.1310    2.1140 N   0  0  0  0  0  0  0  0  0  0  0  0
   -4.2650   -2.8660   -0.0170 O   0  0  0  0  0  0  0  0  0  0  0  0
   -4.2810    3.1760    1.2910 O   0  0  0  0  0  0  0  0  0  0  0  0
    4.1080   -2.4590    3.6970 C   0  0  2  0  0  0  0  0  0  0  0  0
   -1.7830    2.7370   -4.6570 C   0  0  2  0  0  0  0  0  0  0  0  0
    4.0850    1.1110    3.8490 C   0  0  2  0  0  0  0  0  0  0  0  0
   -2.2240   -0.6910   -5.5800 C   0  0  2  0  0  0  0  0  0  0  0  0
    3.4340   -0.9760   -3.9100 N   0  0  0  0  0  0  0  0  0  0  0  0
    4.3330    0.1440   -3.8890 C   0  0  2  0  0  0  0  0  0  0  0  0
    5.2040   -0.1130   -2.6190 C   0  0  2  0  0  0  0  0  0  0  0  0
    4.6440   -1.3190   -2.0690 N   0  0  0  0  0  0  0  0  0  0  0  0
    3.6480   -1.8630   -2.8660 C   0  0  0  0  0  0  0  0  0  0  0  0
    3.7520    1.4370   -3.6380 N   0  0  0  0  0  0  0  0  0  0  0  0
    4.2370    2.0290   -2.4810 C   0  0  0  0  0  0  0  0  0  0  0  0
    5.0350    1.0890   -1.8480 N   0  0  0  0  0  0  0  0  0  0  0  0
    3.1120   -2.9340   -2.7150 O   0  0  0  0  0  0  0  0  0  0  0  0
    4.0500    3.1670   -2.1250 O   0  0  0  0  0  0  0  0  0  0  0  0
    2.5730   -1.3060   -5.0100 C   0  0  2  0  0  0  0  0  0  0  0  0
    3.0600    2.2120   -4.6330 C   0  0  2  0  0  0  0  0  0  0  0  0
    5.8190    1.4280   -0.6920 C   0  0  1  0  0  0  0  0  0  0  0  0
    5.2590   -2.0850   -1.0220 C   0  0  1  0  0  0  0  0  0  0  0  0
   -5.4730   -1.1550   -1.9770 C   0  0  2  0  0  0  0  0  0  0  0  0
   -5.2450    2.3290   -1.2550 C   0  0  2  0  0  0  0  0  0  0  0  0
   -4.5280   -2.0700    2.7120 C   0  0  1  0  0  0  0  0  0  0  0  0
   -4.7580    1.4120    3.5050 C   0  0  1  0  0  0  0  0  0  0  0  0
    0.8230    0.5110    5.2210 N   0  0  0  0  0  0  0  0  0  0  0  0
    1.3580   -0.7650    5.6070 C   0  0  2  0  0  0  0  0  0  0  0  0
    2.8150   -0.7320    5.0450 C   0  0  2  0  0  0  0  0  0  0  0  0
    2.8710    0.5230    4.3410 N   0  0  0  0  0  0  0  0  0  0  0  0
    1.7250    1.2860    4.5100 C   0  0  0  0  0  0  0  0  0  0  0  0
    0.7840   -1.9250    4.9760 N   0  0  0  0  0  0  0  0  0  0  0  0
    1.7160   -2.6590    4.2570 C   0  0  0  0  0  0  0  0  0  0  0  0
    2.8920   -1.9250    4.2480 N   0  0  0  0  0  0  0  0  0  0  0  0
    1.5670    2.4300    4.1590 O   0  0  0  0  0  0  0  0  0  0  0  0
    1.5540   -3.7580    3.7810 O   0  0  0  0  0  0  0  0  0  0  0  0
   -0.4220    1.0470    5.6940 C   0  0  2  0  0  0  0  0  0  0  0  0
   -0.4700   -2.5100    5.3690 C   0  0  2  0  0  0  0  0  0  0  0  0
    1.8262    0.7519   -6.5368 H   0  0  0  0  0  0  0  0  0  0  0  0
   -0.7495    1.2891   -6.6537 H   0  0  0  0  0  0  0  0  0  0  0  0
   -3.9500    1.3636   -5.3837 H   0  0  0  0  0  0  0  0  0  0  0  0
   -5.7768    0.9872   -3.5345 H   0  0  0  0  0  0  0  0  0  0  0  0
    6.7798   -0.6871    0.6794 H   0  0  0  0  0  0  0  0  0  0  0  0
    6.0161   -0.6201    3.2007 H   0  0  0  0  0  0  0  0  0  0  0  0
   -2.2502   -0.7649    6.3988 H   0  0  0  0  0  0  0  0  0  0  0  0
   -4.5118   -0.7776    5.0504 H   0  0  0  0  0  0  0  0  0  0  0  0
   -6.8362    0.4316   -0.2622 H   0  0  0  0  0  0  0  0  0  0  0  0
   -6.4428   -0.2737    2.2436 H   0  0  0  0  0  0  0  0  0  0  0  0
    4.8774   -2.3529    4.4330 H   0  0  0  0  0  0  0  0  0  0  0  0
    3.8919   -3.4751    3.4407 H   0  0  0  0  0  0  0  0  0  0  0  0
   -2.1734    2.8841   -5.6423 H   0  0  0  0  0  0  0  0  0  0  0  0
   -1.5650    3.6534   -4.1495 H   0  0  0  0  0  0  0  0  0  0  0  0
    3.9317    2.1662    3.7604 H   0  0  0  0  0  0  0  0  0  0  0  0
    4.8506    0.8532    4.5506 H   0  0  0  0  0  0  0  0  0  0  0  0
   -2.2678   -1.7584   -5.6401 H   0  0  0  0  0  0  0  0  0  0  0  0
   -2.5621   -0.1925   -6.4644 H   0  0  0  0  0  0  0  0  0  0  0  0
    4.7992    0.1897   -4.8510 H   0  0  0  0  0  0  0  0  0  0  0  0
    6.2568   -0.2736   -2.7228 H   0  0  0  0  0  0  0  0  0  0  0  0
    3.1093   -1.1235   -5.9177 H   0  0  0  0  0  0  0  0  0  0  0  0
    2.2985   -2.3317   -4.8778 H   0  0  0  0  0  0  0  0  0  0  0  0
    3.0918    3.2385   -4.3327 H   0  0  0  0  0  0  0  0  0  0  0  0
    3.5614    2.0187   -5.5583 H   0  0  0  0  0  0  0  0  0  0  0  0
    5.7623    2.4877   -0.5548 H   0  0  0  0  0  0  0  0  0  0  0  0
    6.8073    1.0705   -0.8930 H   0  0  0  0  0  0  0  0  0  0  0  0
    6.3173   -2.0738   -1.1791 H   0  0  0  0  0  0  0  0  0  0  0  0
    4.8342   -3.0655   -1.0770 H   0  0  0  0  0  0  0  0  0  0  0  0
   -5.3418   -2.2059   -2.1296 H   0  0  0  0  0  0  0  0  0  0  0  0
   -6.4443   -0.8003   -2.2521 H   0  0  0  0  0  0  0  0  0  0  0  0
   -6.2670    2.2990   -1.5704 H   0  0  0  0  0  0  0  0  0  0  0  0
   -4.9151    3.3056   -0.9681 H   0  0  0  0  0  0  0  0  0  0  0  0
   -4.2973   -3.0577    2.3711 H   0  0  0  0  0  0  0  0  0  0  0  0
   -5.4068   -2.0300    3.3211 H   0  0  0  0  0  0  0  0  0  0  0  0
   -5.6259    1.1059    4.0509 H   0  0  0  0  0  0  0  0  0  0  0  0
   -4.5570    2.4615    3.5598 H   0  0  0  0  0  0  0  0  0  0  0  0
    1.1984   -0.8675    6.6601 H   0  0  0  0  0  0  0  0  0  0  0  0
    3.6448   -0.7518    5.7202 H   0  0  0  0  0  0  0  0  0  0  0  0
   -0.5188    0.7971    6.7299 H   0  0  0  0  0  0  0  0  0  0  0  0
   -0.3819    2.1009    5.5132 H   0  0  0  0  0  0  0  0  0  0  0  0
   -0.4697   -3.5332    5.0561 H   0  0  0  0  0  0  0  0  0  0  0  0
   -0.5345   -2.3855    6.4298 H   0  0  0  0  0  0  0  0  0  0  0  0
   -0.0593   -0.0341   -0.8319 C   0  0  0  0  0  0  0  0  0  0  0  0
   -0.0575   -0.1693    0.5514 C   0  0  0  0  0  0  0  0  0  0  0  0
   -0.0125    0.8270    1.5195 C   0  0  0  0  0  0  0  0  0  0  0  0
    0.0420    2.2046    1.3433 C   0  0  0  0  0  0  0  0  0  0  0  0
    0.0648    2.9261    0.1556 C   0  0  0  0  0  3  0  0  0  0  0  0
    0.0389    2.4483   -1.1493 C   0  0  0  0  0  0  0  0  0  0  0  0
   -0.0164    1.1308   -1.5888 C   0  0  0  0  0  0  0  0  0  0  0  0
   -0.0994   -0.9594   -1.3948 H   0  0  0  0  0  0  0  0  0  0  0  0
   -0.0965   -1.1861    0.9246 H   0  0  0  0  0  0  0  0  0  0  0  0
   -0.0209    0.4843    2.5477 H   0  0  0  0  0  0  0  0  0  0  0  0
    0.0704    2.7941    2.2523 H   0  0  0  0  0  0  0  0  0  0  0  0
    0.1087    4.0039    0.2609 H   0  0  0  0  0  0  0  0  0  0  0  0
    0.0651    3.2027   -1.9270 H   0  0  0  0  0  0  0  0  0  0  0  0
   -0.0275    0.9938   -2.6638 H   0  0  0  0  0  0  0  0  0  0  0  0
  1  5  1  0
  1 65  1  0
  2  1  1  0
  2  6  1  0
  2  3  1  0
  2 85  1  6
  3  4  1  0
  3  8  1  0
  3 86  1  6
  4  5  1  0
  5  9  2  0
  6 66  1  0
  6  7  1  0
  7 10  2  0
  8 52  1  0
  8  7  1  0
 11 15  1  0
 12 11  1  0
 12 16  1  0
 12 13  1  0
 12 87  1  6
 13 14  1  0
 13 18  1  0
 13 88  1  6
 14 69  1  0
 15 19  2  0
 15 14  1  0
 16 17  1  0
 17 18  1  0
 17 20  2  0
 18 70  1  0
 21 25  1  0
 22 21  1  0
 22 23  1  0
 22 89  1  1
 23 24  1  0
 23 28  1  0
 23 90  1  1
 24 51  1  0
 25 24  1  0
 26 22  1  0
 26 27  1  0
 27 28  1  0
 28 53  1  0
 29 25  2  0
 30 27  2  0
 31 84  1  0
 32 31  1  0
 32 33  1  0
 32 91  1  1
 33 34  1  0
 33 92  1  1
 34 35  1  0
 35 31  1  0
 36 32  1  0
 36 83  1  0
 37 36  1  0
 38 37  1  0
 38 33  1  0
 39 35  2  0
 40 37  2  0
 41 45  1  0
 42 41  1  0
 42 43  1  0
 42 93  1  1
 43 44  1  0
 43 48  1  0
 43 94  1  1
 44 71  1  0
 45 44  1  0
 46 42  1  0
 46 47  1  0
 47 50  2  0
 47 48  1  0
 48 72  1  0
 49 45  2  0
 51 80  1  0
 51 95  1  1
 51 96  1  0
 52 16  1  0
 52 97  1  6
 52 98  1  0
 53 76  1  0
 53 99  1  6
 53100  1  0
 54  4  1  0
 54 11  1  0
 54101  1  6
 54102  1  0
 55 59  1  0
 56 55  1  0
 56 60  1  0
 56 57  1  0
 56103  1  6
 57 58  1  0
 57 62  1  0
 57104  1  6
 58 68  1  0
 59 63  2  0
 59 58  1  0
 60 61  1  0
 61 64  2  0
 61 62  1  0
 62 67  1  0
 65 55  1  0
 65105  1  6
 65106  1  0
 66 60  1  0
 66107  1  1
 66108  1  0
 67 26  1  0
 67109  1  1
 67110  1  0
 68 21  1  0
 68111  1  6
 68112  1  0
 69 41  1  0
 69113  1  1
 69114  1  0
 70 46  1  0
 70115  1  6
 70116  1  0
 71 34  1  0
 71117  1  6
 71118  1  0
 72 38  1  0
 72119  1  1
 72120  1  0
 73 74  1  0
 73 83  1  0
 74 78  1  0
 74 75  1  0
 74121  1  1
 75 80  1  0
 75122  1  1
 76 77  1  0
 76 75  1  0
 77 73  1  0
 78 84  1  0
 79 78  1  0
 80 79  1  0
 81 77  2  0
 82 79  2  0
 83123  1  1
 83124  1  0
 84125  1  1
 84126  1  0
127128  2  0
128129  1  0
129130  2  0
130131  1  0
131132  1  0
132133  2  0
133127  1  0
127134  1  0
128135  1  0
129136  1  0
130137  1  0
131138  1  0
132139  1  0
133140  1  0
M  CHG  1 131   1
M  END
$$$$

     RDKit          3D

140161  0  0  1  0  0  0  0  0999 V2000
    1.3410   -0.5630   -5.0620 N   0  0  0  0  0  0  0  0  0  0  0  0
    1.2350    0.7530   -5.6450 C   0  0  1  0  0  0  0  0  0  0  0  0
   -0.3060    0.9780   -5.7310 C   0  0  1  0  0  0  0  0  0  0  0  0
   -0.8470   -0.3140   -5.4200 N   0  0  0  0  0  0  0  0  0  0  0  0
    0.1230   -1.2290   -5.0420 C   0  0  0  0  0  0  0  0  0  0  0  0
    1.6850    1.8550   -4.8460 N   0  0  0  0  0  0  0  0  0  0  0  0
    0.6440    2.6120   -4.3330 C   0  0  0  0  0  0  0  0  0  0  0  0
   -0.5370    2.0290   -4.7700 N   0  0  0  0  0  0  0  0  0  0  0  0
   -0.0530   -2.4000   -4.8020 O   0  0  0  0  0  0  0  0  0  0  0  0
    0.7490    3.6240   -3.6810 O   0  0  0  0  0  0  0  0  0  0  0  0
   -3.1110   -0.2710   -4.5300 N   0  0  0  0  0  0  0  0  0  0  0  0
   -3.6590    1.0500   -4.4030 C   0  0  1  0  0  0  0  0  0  0  0  0
   -4.7400    0.8890   -3.2890 C   0  0  1  0  0  0  0  0  0  0  0  0
   -4.5400   -0.4620   -2.8270 N   0  0  0  0  0  0  0  0  0  0  0  0
   -3.6610   -1.1740   -3.6330 C   0  0  0  0  0  0  0  0  0  0  0  0
   -2.7860    2.0670   -3.8730 N   0  0  0  0  0  0  0  0  0  0  0  0
   -3.2890    2.6520   -2.7200 C   0  0  0  0  0  0  0  0  0  0  0  0
   -4.4250    1.9420   -2.3680 N   0  0  0  0  0  0  0  0  0  0  0  0
   -3.4600   -2.3640   -3.6020 O   0  0  0  0  0  0  0  0  0  0  0  0
   -2.8550    3.6320   -2.1630 O   0  0  0  0  0  0  0  0  0  0  0  0
    4.9990   -1.6050    0.3100 N   0  0  0  0  0  0  0  0  0  0  0  0
    5.7500   -0.5370    0.9280 C   0  0  2  0  0  0  0  0  0  0  0  0
    5.2890   -0.6010    2.4160 C   0  0  2  0  0  0  0  0  0  0  0  0
    4.5660   -1.8370    2.4860 N   0  0  0  0  0  0  0  0  0  0  0  0
    4.4000   -2.4360    1.2470 C   0  0  0  0  0  0  0  0  0  0  0  0
    5.4160    0.8010    0.5360 N   0  0  0  0  0  0  0  0  0  0  0  0
    4.6970    1.4840    1.5040 C   0  0  0  0  0  0  0  0  0  0  0  0
    4.5220    0.6130    2.5710 N   0  0  0  0  0  0  0  0  0  0  0  0
    3.8850   -3.5070    1.0340 O   0  0  0  0  0  0  0  0  0  0  0  0
    4.3440    2.6380    1.4520 O   0  0  0  0  0  0  0  0  0  0  0  0
   -1.6400   -1.8800    4.8240 N   0  0  0  0  0  0  0  0  0  0  0  0
   -2.2420   -0.6820    5.3320 C   0  0  2  0  0  0  0  0  0  0  0  0
   -3.5860   -0.5950    4.5460 C   0  0  2  0  0  0  0  0  0  0  0  0
   -3.4410   -1.6150    3.5360 N   0  0  0  0  0  0  0  0  0  0  0  0
   -2.3460   -2.4350    3.7680 C   0  0  0  0  0  0  0  0  0  0  0  0
   -1.5920    0.5650    5.0070 N   0  0  0  0  0  0  0  0  0  0  0  0
   -2.4520    1.4580    4.3800 C   0  0  0  0  0  0  0  0  0  0  0  0
   -3.6170    0.7650    4.0920 N   0  0  0  0  0  0  0  0  0  0  0  0
   -2.0890   -3.4700    3.2020 O   0  0  0  0  0  0  0  0  0  0  0  0
   -2.2490    2.6310    4.1800 O   0  0  0  0  0  0  0  0  0  0  0  0
   -5.3360   -0.8900   -0.5730 N   0  0  0  0  0  0  0  0  0  0  0  0
   -5.8430    0.2690    0.1010 C   0  0  1  0  0  0  0  0  0  0  0  0
   -5.6090   -0.0600    1.6080 C   0  0  1  0  0  0  0  0  0  0  0  0
   -4.7930   -1.2490    1.5610 N   0  0  0  0  0  0  0  0  0  0  0  0
   -4.7210   -1.7890    0.2840 C   0  0  0  0  0  0  0  0  0  0  0  0
   -5.1160    1.5030   -0.0830 N   0  0  0  0  0  0  0  0  0  0  0  0
   -4.7190    2.0630    1.1250 C   0  0  0  0  0  0  0  0  0  0  0  0
   -4.9900    1.1310    2.1140 N   0  0  0  0  0  0  0  0  0  0  0  0
   -4.2650   -2.8660   -0.0170 O   0  0  0  0  0  0  0  0  0  0  0  0
   -4.2810    3.1760    1.2910 O   0  0  0  0  0  0  0  0  0  0  0  0
    4.1080   -2.4590    3.6970 C   0  0  2  0  0  0  0  0  0  0  0  0
   -1.7830    2.7370   -4.6570 C   0  0  2  0  0  0  0  0  0  0  0  0
    4.0850    1.1110    3.8490 C   0  0  2  0  0  0  0  0  0  0  0  0
   -2.2240   -0.6910   -5.5800 C   0  0  2  0  0  0  0  0  0  0  0  0
    3.4340   -0.9760   -3.9100 N   0  0  0  0  0  0  0  0  0  0  0  0
    4.3330    0.1440   -3.8890 C   0  0  2  0  0  0  0  0  0  0  0  0
    5.2040   -0.1130   -2.6190 C   0  0  2  0  0  0  0  0  0  0  0  0
    4.6440   -1.3190   -2.0690 N   0  0  0  0  0  0  0  0  0  0  0  0
    3.6480   -1.8630   -2.8660 C   0  0  0  0  0  0  0  0  0  0  0  0
    3.7520    1.4370   -3.6380 N   0  0  0  0  0  0  0  0  0  0  0  0
    4.2370    2.0290   -2.4810 C   0  0  0  0  0  0  0  0  0  0  0  0
    5.0350    1.0890   -1.8480 N   0  0  0  0  0  0  0  0  0  0  0  0
    3.1120   -2.9340   -2.7150 O   0  0  0  0  0  0  0  0  0  0  0  0
    4.0500    3.1670   -2.1250 O   0  0  0  0  0  0  0  0  0  0  0  0
    2.5730   -1.3060   -5.0100 C   0  0  2  0  0  0  0  0  0  0  0  0
    3.0600    2.2120   -4.6330 C   0  0  2  0  0  0  0  0  0  0  0  0
    5.8190    1.4280   -0.6920 C   0  0  1  0  0  0  0  0  0  0  0  0
    5.2590   -2.0850   -1.0220 C   0  0  1  0  0  0  0  0  0  0  0  0
   -5.4730   -1.1550   -1.9770 C   0  0  2  0  0  0  0  0  0  0  0  0
   -5.2450    2.3290   -1.2550 C   0  0  2  0  0  0  0  0  0  0  0  0
   -4.5280   -2.0700    2.7120 C   0  0  1  0  0  0  0  0  0  0  0  0
   -4.7580    1.4120    3.5050 C   0  0  1  0  0  0  0  0  0  0  0  0
    0.8230    0.5110    5.2210 N   0  0  0  0  0  0  0  0  0  0  0  0
    1.3580   -0.7650    5.6070 C   0  0  2  0  0  0  0  0  0  0  0  0
    2.8150   -0.7320    5.0450 C   0  0  2  0  0  0  0  0  0  0  0  0
    2.8710    0.5230    4.3410 N   0  0  0  0  0  0  0  0  0  0  0  0
    1.7250    1.2860    4.5100 C   0  0  0  0  0  0  0  0  0  0  0  0
    0.7840   -1.9250    4.9760 N   0  0  0  0  0  0  0  0  0  0  0  0
    1.7160   -2.6590    4.2570 C   0  0  0  0  0  0  0  0  0  0  0  0
    2.8920   -1.9250    4.2480 N   0  0  0  0  0  0  0  0  0  0  0  0
    1.5670    2.4300    4.1590 O   0  0  0  0  0  0  0  0  0  0  0  0
    1.5540   -3.7580    3.7810 O   0  0  0  0  0  0  0  0  0  0  0  0
   -0.4220    1.0470    5.6940 C   0  0  2  0  0  0  0  0  0  0  0  0
   -0.4700   -2.5100    5.3690 C   0  0  2  0  0  0  0  0  0  0  0  0
    1.8262    0.7519   -6.5368 H   0  0  0  0  0  0  0  0  0  0  0  0
   -0.7495    1.2891   -6.6537 H   0  0  0  0  0  0  0  0  0  0  0  0
   -3.9500    1.3636   -5.3837 H   0  0  0  0  0  0  0  0  0  0  0  0
   -5.7768    0.9872   -3.5345 H   0  0  0  0  0  0  0  0  0  0  0  0
    6.7798   -0.6871    0.6794 H   0  0  0  0  0  0  0  0  0  0  0  0
    6.0161   -0.6201    3.2007 H   0  0  0  0  0  0  0  0  0  0  0  0
   -2.2502   -0.7649    6.3988 H   0  0  0  0  0  0  0  0  0  0  0  0
   -4.5118   -0.7776    5.0504 H   0  0  0  0  0  0  0  0  0  0  0  0
   -6.8362    0.4316   -0.2622 H   0  0  0  0  0  0  0  0  0  0  0  0
   -6.4428   -0.2737    2.2436 H   0  0  0  0  0  0  0  0  0  0  0  0
    4.8774   -2.3529    4.4330 H   0  0  0  0  0  0  0  0  0  0  0  0
    3.8919   -3.4751    3.4407 H   0  0  0  0  0  0  0  0  0  0  0  0
   -2.1734    2.8841   -5.6423 H   0  0  0  0  0  0  0  0  0  0  0  0
   -1.5650    3.6534   -4.1495 H   0  0  0  0  0  0  0  0  0  0  0  0
    3.9317    2.1662    3.7604 H   0  0  0  0  0  0  0  0  0  0  0  0
    4.8506    0.8532    4.5506 H   0  0  0  0  0  0  0  0  0  0  0  0
   -2.2678   -1.7584   -5.6401 H   0  0  0  0  0  0  0  0  0  0  0  0
   -2.5621   -0.1925   -6.4644 H   0  0  0  0  0  0  0  0  0  0  0  0
    4.7992    0.1897   -4.8510 H   0  0  0  0  0  0  0  0  0  0  0  0
    6.2568   -0.2736   -2.7228 H   0  0  0  0  0  0  0  0  0  0  0  0
    3.1093   -1.1235   -5.9177 H   0  0  0  0  0  0  0  0  0  0  0  0
    2.2985   -2.3317   -4.8778 H   0  0  0  0  0  0  0  0  0  0  0  0
    3.0918    3.2385   -4.3327 H   0  0  0  0  0  0  0  0  0  0  0  0
    3.5614    2.0187   -5.5583 H   0  0  0  0  0  0  0  0  0  0  0  0
    5.7623    2.4877   -0.5548 H   0  0  0  0  0  0  0  0  0  0  0  0
    6.8073    1.0705   -0.8930 H   0  0  0  0  0  0  0  0  0  0  0  0
    6.3173   -2.0738   -1.1791 H   0  0  0  0  0  0  0  0  0  0  0  0
    4.8342   -3.0655   -1.0770 H   0  0  0  0  0  0  0  0  0  0  0  0
   -5.3418   -2.2059   -2.1296 H   0  0  0  0  0  0  0  0  0  0  0  0
   -6.4443   -0.8003   -2.2521 H   0  0  0  0  0  0  0  0  0  0  0  0
   -6.2670    2.2990   -1.5704 H   0  0  0  0  0  0  0  0  0  0  0  0
   -4.9151    3.3056   -0.9681 H   0  0  0  0  0  0  0  0  0  0  0  0
   -4.2973   -3.0577    2.3711 H   0  0  0  0  0  0  0  0  0  0  0  0
   -5.4068   -2.0300    3.3211 H   0  0  0  0  0  0  0  0  0  0  0  0
   -5.6259    1.1059    4.0509 H   0  0  0  0  0  0  0  0  0  0  0  0
   -4.5570    2.4615    3.5598 H   0  0  0  0  0  0  0  0  0  0  0  0
    1.1984   -0.8675    6.6601 H   0  0  0  0  0  0  0  0  0  0  0  0
    3.6448   -0.7518    5.7202 H   0  0  0  0  0  0  0  0  0  0  0  0
   -0.5188    0.7971    6.7299 H   0  0  0  0  0  0  0  0  0  0  0  0
   -0.3819    2.1009    5.5132 H   0  0  0  0  0  0  0  0  0  0  0  0
   -0.4697   -3.5332    5.0561 H   0  0  0  0  0  0  0  0  0  0  0  0
   -0.5345   -2.3855    6.4298 H   0  0  0  0  0  0  0  0  0  0  0  0
   -0.0593    1.2992   -0.8319 C   0  0  0  0  0  0  0  0  0  0  0  0
   -0.0575    1.1640    0.5514 C   0  0  0  0  0  0  0  0  0  0  0  0
   -0.0125    2.1603    1.5195 C   0  0  0  0  0  0  0  0  0  0  0  0
    0.0420    3.5379    1.3433 C   0  0  0  0  0  0  0  0  0  0  0  0
    0.0648    4.2595    0.1556 C   0  0  0  0  0  3  0  0  0  0  0  0
    0.0389    3.7816   -1.1493 C   0  0  0  0  0  0  0  0  0  0  0  0
   -0.0164    2.4642   -1.5888 C   0  0  0  0  0  0  0  0  0  0  0  0
   -0.0994    0.3739   -1.3948 H   0  0  0  0  0  0  0  0  0  0  0  0
   -0.0965    0.1472    0.9246 H   0  0  0  0  0  0  0  0  0  0  0  0
   -0.0209    1.8177    2.5477 H   0  0  0  0  0  0  0  0  0  0  0  0
    0.0704    4.1275    2.2523 H   0  0  0  0  0  0  0  0  0  0  0  0
    0.1087    5.3372    0.2609 H   0  0  0  0  0  0  0  0  0  0  0  0
    0.0651    4.5360   -1.9270 H   0  0  0  0  0  0  0  0  0  0  0  0
   -0.0275    2.3271   -2.6638 H   0  0  0  0  0  0  0  0  0  0  0  0
  1  5  1  0
  1 65  1  0
  2  1  1  0
  2  6  1  0
  2  3  1  0
  2 85  1  6
  3  4  1  0
  3  8  1  0
  3 86  1  6
  4  5  1  0
  5  9  2  0
  6 66  1  0
  6  7  1  0
  7 10  2  0
  8 52  1  0
  8  7  1  0
 11 15  1  0
 12 11  1  0
 12 16  1  0
 12 13  1  0
 12 87  1  6
 13 14  1  0
 13 18  1  0
 13 88  1  6
 14 69  1  0
 15 19  2  0
 15 14  1  0
 16 17  1  0
 17 18  1  0
 17 20  2  0
 18 70  1  0
 21 25  1  0
 22 21  1  0
 22 23  1  0
 22 89  1  1
 23 24  1  0
 23 28  1  0
 23 90  1  1
 24 51  1  0
 25 24  1  0
 26 22  1  0
 26 27  1  0
 27 28  1  0
 28 53  1  0
 29 25  2  0
 30 27  2  0
 31 84  1  0
 32 31  1  0
 32 33  1  0
 32 91  1  1
 33 34  1  0
 33 92  1  1
 34 35  1  0
 35 31  1  0
 36 32  1  0
 36 83  1  0
 37 36  1  0
 38 37  1  0
 38 33  1  0
 39 35  2  0
 40 37  2  0
 41 45  1  0
 42 41  1  0
 42 43  1  0
 42 93  1  1
 43 44  1  0
 43 48  1  0
 43 94  1  1
 44 71  1  0
 45 44  1  0
 46 42  1  0
 46 47  1  0
 47 50  2  0
 47 48  1  0
 48 72  1  0
 49 45  2  0
 51 80  1  0
 51 95  1  1
 51 96  1  0
 52 16  1  0
 52 97  1  6
 52 98  1  0
 53 76  1  0
 53 99  1  6
 53100  1  0
 54  4  1  0
 54 11  1  0
 54101  1  6
 54102  1  0
 55 59  1  0
 56 55  1  0
 56 60  1  0
 56 57  1  0
 56103  1  6
 57 58  1  0
 57 62  1  0
 57104  1  6
 58 68  1  0
 59 63  2  0
 59 58  1  0
 60 61  1  0
 61 64  2  0
 61 62  1  0
 62 67  1  0
 65 55  1  0
 65105  1  6
 65106  1  0
 66 60  1  0
 66107  1  1
 66108  1  0
 67 26  1  0
 67109  1  1
 67110  1  0
 68 21  1  0
 68111  1  6
 68112  1  0
 69 41  1  0
 69113  1  1
 69114  1  0
 70 46  1  0
 70115  1  6
 70116  1  0
 71 34  1  0
 71117  1  6
 71118  1  0
 72 38  1  0
 72119  1  1
 72120  1  0
 73 74  1  0
 73 83  1  0
 74 78  1  0
 74 75  1  0
 74121  1  1
 75 80  1  0
 75122  1  1
 76 77  1  0
 76 75  1  0
 77 73  1  0
 78 84  1  0
 79 78  1  0
 80 79  1  0
 81 77  2  0
 82 79  2  0
 83123  1  1
 83124  1  0
 84125  1  1
 84126  1  0
127128  2  0
128129  1  0
129130  2  0
130131  1  0
131132  1  0
132133  2  0
133127  1  0
127134  1  0
128135  1  0
129136  1  0
130137  1  0
131138  1  0
132139  1  0
133140  1  0
M  CHG  1 131   1
M  END
$$$$

     RDKit          3D

140161  0  0  1  0  0  0  0  0999 V2000
    1.3410   -0.5630   -5.0620 N   0  0  0  0  0  0  0  0  0  0  0  0
    1.2350    0.7530   -5.6450 C   0  0  1  0  0  0  0  0  0  0  0  0
   -0.3060    0.9780   -5.7310 C   0  0  1  0  0  0  0  0  0  0  0  0
   -0.8470   -0.3140   -5.4200 N   0  0  0  0  0  0  0  0  0  0  0  0
    0.1230   -1.2290   -5.0420 C   0  0  0  0  0  0  0  0  0  0  0  0
    1.6850    1.8550   -4.8460 N   0  0  0  0  0  0  0  0  0  0  0  0
    0.6440    2.6120   -4.3330 C   0  0  0  0  0  0  0  0  0  0  0  0
   -0.5370    2.0290   -4.7700 N   0  0  0  0  0  0  0  0  0  0  0  0
   -0.0530   -2.4000   -4.8020 O   0  0  0  0  0  0  0  0  0  0  0  0
    0.7490    3.6240   -3.6810 O   0  0  0  0  0  0  0  0  0  0  0  0
   -3.1110   -0.2710   -4.5300 N   0  0  0  0  0  0  0  0  0  0  0  0
   -3.6590    1.0500   -4.4030 C   0  0  1  0  0  0  0  0  0  0  0  0
   -4.7400    0.8890   -3.2890 C   0  0  1  0  0  0  0  0  0  0  0  0
   -4.5400   -0.4620   -2.8270 N   0  0  0  0  0  0  0  0  0  0  0  0
   -3.6610   -1.1740   -3.6330 C   0  0  0  0  0  0  0  0  0  0  0  0
   -2.7860    2.0670   -3.8730 N   0  0  0  0  0  0  0  0  0  0  0  0
   -3.2890    2.6520   -2.7200 C   0  0  0  0  0  0  0  0  0  0  0  0
   -4.4250    1.9420   -2.3680 N   0  0  0  0  0  0  0  0  0  0  0  0
   -3.4600   -2.3640   -3.6020 O   0  0  0  0  0  0  0  0  0  0  0  0
   -2.8550    3.6320   -2.1630 O   0  0  0  0  0  0  0  0  0  0  0  0
    4.9990   -1.6050    0.3100 N   0  0  0  0  0  0  0  0  0  0  0  0
    5.7500   -0.5370    0.9280 C   0  0  2  0  0  0  0  0  0  0  0  0
    5.2890   -0.6010    2.4160 C   0  0  2  0  0  0  0  0  0  0  0  0
    4.5660   -1.8370    2.4860 N   0  0  0  0  0  0  0  0  0  0  0  0
    4.4000   -2.4360    1.2470 C   0  0  0  0  0  0  0  0  0  0  0  0
    5.4160    0.8010    0.5360 N   0  0  0  0  0  0  0  0  0  0  0  0
    4.6970    1.4840    1.5040 C   0  0  0  0  0  0  0  0  0  0  0  0
    4.5220    0.6130    2.5710 N   0  0  0  0  0  0  0  0  0  0  0  0
    3.8850   -3.5070    1.0340 O   0  0  0  0  0  0  0  0  0  0  0  0
    4.3440    2.6380    1.4520 O   0  0  0  0  0  0  0  0  0  0  0  0
   -1.6400   -1.8800    4.8240 N   0  0  0  0  0  0  0  0  0  0  0  0
   -2.2420   -0.6820    5.3320 C   0  0  2  0  0  0  0  0  0  0  0  0
   -3.5860   -0.5950    4.5460 C   0  0  2  0  0  0  0  0  0  0  0  0
   -3.4410   -1.6150    3.5360 N   0  0  0  0  0  0  0  0  0  0  0  0
   -2.3460   -2.4350    3.7680 C   0  0  0  0  0  0  0  0  0  0  0  0
   -1.5920    0.5650    5.0070 N   0  0  0  0  0  0  0  0  0  0  0  0
   -2.4520    1.4580    4.3800 C   0  0  0  0  0  0  0  0  0  0  0  0
   -3.6170    0.7650    4.0920 N   0  0  0  0  0  0  0  0  0  0  0  0
   -2.0890   -3.4700    3.2020 O   0  0  0  0  0  0  0  0  0  0  0  0
   -2.2490    2.6310    4.1800 O   0  0  0  0  0  0  0  0  0  0  0  0
   -5.3360   -0.8900   -0.5730 N   0  0  0  0  0  0  0  0  0  0  0  0
   -5.8430    0.2690    0.1010 C   0  0  1  0  0  0  0  0  0  0  0  0
   -5.6090   -0.0600    1.6080 C   0  0  1  0  0  0  0  0  0  0  0  0
   -4.7930   -1.2490    1.5610 N   0  0  0  0  0  0  0  0  0  0  0  0
   -4.7210   -1.7890    0.2840 C   0  0  0  0  0  0  0  0  0  0  0  0
   -5.1160    1.5030   -0.0830 N   0  0  0  0  0  0  0  0  0  0  0  0
   -4.7190    2.0630    1.1250 C   0  0  0  0  0  0  0  0  0  0  0  0
   -4.9900    1.1310    2.1140 N   0  0  0  0  0  0  0  0  0  0  0  0
   -4.2650   -2.8660   -0.0170 O   0  0  0  0  0  0  0  0  0  0  0  0
   -4.2810    3.1760    1.2910 O   0  0  0  0  0  0  0  0  0  0  0  0
    4.1080   -2.4590    3.6970 C   0  0  2  0  0  0  0  0  0  0  0  0
   -1.7830    2.7370   -4.6570 C   0  0  2  0  0  0  0  0  0  0  0  0
    4.0850    1.1110    3.8490 C   0  0  2  0  0  0  0  0  0  0  0  0
   -2.2240   -0.6910   -5.5800 C   0  0  2  0  0  0  0  0  0  0  0  0
    3.4340   -0.9760   -3.9100 N   0  0  0  0  0  0  0  0  0  0  0  0
    4.3330    0.1440   -3.8890 C   0  0  2  0  0  0  0  0  0  0  0  0
    5.2040   -0.1130   -2.6190 C   0  0  2  0  0  0  0  0  0  0  0  0
    4.6440   -1.3190   -2.0690 N   0  0  0  0  0  0  0  0  0  0  0  0
    3.6480   -1.8630   -2.8660 C   0  0  0  0  0  0  0  0  0  0  0  0
    3.7520    1.4370   -3.6380 N   0  0  0  0  0  0  0  0  0  0  0  0
    4.2370    2.0290   -2.4810 C   0  0  0  0  0  0  0  0  0  0  0  0
    5.0350    1.0890   -1.8480 N   0  0  0  0  0  0  0  0  0  0  0  0
    3.1120   -2.9340   -2.7150 O   0  0  0  0  0  0  0  0  0  0  0  0
    4.0500    3.1670   -2.1250 O   0  0  0  0  0  0  0  0  0  0  0  0
    2.5730   -1.3060   -5.0100 C   0  0  2  0  0  0  0  0  0  0  0  0
    3.0600    2.2120   -4.6330 C   0  0  2  0  0  0  0  0  0  0  0  0
    5.8190    1.4280   -0.6920 C   0  0  1  0  0  0  0  0  0  0  0  0
    5.2590   -2.0850   -1.0220 C   0  0  1  0  0  0  0  0  0  0  0  0
   -5.4730   -1.1550   -1.9770 C   0  0  2  0  0  0  0  0  0  0  0  0
   -5.2450    2.3290   -1.2550 C   0  0  2  0  0  0  0  0  0  0  0  0
   -4.5280   -2.0700    2.7120 C   0  0  1  0  0  0  0  0  0  0  0  0
   -4.7580    1.4120    3.5050 C   0  0  1  0  0  0  0  0  0  0  0  0
    0.8230    0.5110    5.2210 N   0  0  0  0  0  0  0  0  0  0  0  0
    1.3580   -0.7650    5.6070 C   0  0  2  0  0  0  0  0  0  0  0  0
    2.8150   -0.7320    5.0450 C   0  0  2  0  0  0  0  0  0  0  0  0
    2.8710    0.5230    4.3410 N   0  0  0  0  0  0  0  0  0  0  0  0
    1.7250    1.2860    4.5100 C   0  0  0  0  0  0  0  0  0  0  0  0
    0.7840   -1.9250    4.9760 N   0  0  0  0  0  0  0  0  0  0  0  0
    1.7160   -2.6590    4.2570 C   0  0  0  0  0  0  0  0  0  0  0  0
    2.8920   -1.9250    4.2480 N   0  0  0  0  0  0  0  0  0  0  0  0
    1.5670    2.4300    4.1590 O   0  0  0  0  0  0  0  0  0  0  0  0
    1.5540   -3.7580    3.7810 O   0  0  0  0  0  0  0  0  0  0  0  0
   -0.4220    1.0470    5.6940 C   0  0  2  0  0  0  0  0  0  0  0  0
   -0.4700   -2.5100    5.3690 C   0  0  2  0  0  0  0  0  0  0  0  0
    1.8262    0.7519   -6.5368 H   0  0  0  0  0  0  0  0  0  0  0  0
   -0.7495    1.2891   -6.6537 H   0  0  0  0  0  0  0  0  0  0  0  0
   -3.9500    1.3636   -5.3837 H   0  0  0  0  0  0  0  0  0  0  0  0
   -5.7768    0.9872   -3.5345 H   0  0  0  0  0  0  0  0  0  0  0  0
    6.7798   -0.6871    0.6794 H   0  0  0  0  0  0  0  0  0  0  0  0
    6.0161   -0.6201    3.2007 H   0  0  0  0  0  0  0  0  0  0  0  0
   -2.2502   -0.7649    6.3988 H   0  0  0  0  0  0  0  0  0  0  0  0
   -4.5118   -0.7776    5.0504 H   0  0  0  0  0  0  0  0  0  0  0  0
   -6.8362    0.4316   -0.2622 H   0  0  0  0  0  0  0  0  0  0  0  0
   -6.4428   -0.2737    2.2436 H   0  0  0  0  0  0  0  0  0  0  0  0
    4.8774   -2.3529    4.4330 H   0  0  0  0  0  0  0  0  0  0  0  0
    3.8919   -3.4751    3.4407 H   0  0  0  0  0  0  0  0  0  0  0  0
   -2.1734    2.8841   -5.6423 H   0  0  0  0  0  0  0  0  0  0  0  0
   -1.5650    3.6534   -4.1495 H   0  0  0  0  0  0  0  0  0  0  0  0
    3.9317    2.1662    3.7604 H   0  0  0  0  0  0  0  0  0  0  0  0
    4.8506    0.8532    4.5506 H   0  0  0  0  0  0  0  0  0  0  0  0
   -2.2678   -1.7584   -5.6401 H   0  0  0  0  0  0  0  0  0  0  0  0
   -2.5621   -0.1925   -6.4644 H   0  0  0  0  0  0  0  0  0  0  0  0
    4.7992    0.1897   -4.8510 H   0  0  0  0  0  0  0  0  0  0  0  0
    6.2568   -0.2736   -2.7228 H   0  0  0  0  0  0  0  0  0  0  0  0
    3.1093   -1.1235   -5.9177 H   0  0  0  0  0  0  0  0  0  0  0  0
    2.2985   -2.3317   -4.8778 H   0  0  0  0  0  0  0  0  0  0  0  0
    3.0918    3.2385   -4.3327 H   0  0  0  0  0  0  0  0  0  0  0  0
    3.5614    2.0187   -5.5583 H   0  0  0  0  0  0  0  0  0  0  0  0
    5.7623    2.4877   -0.5548 H   0  0  0  0  0  0  0  0  0  0  0  0
    6.8073    1.0705   -0.8930 H   0  0  0  0  0  0  0  0  0  0  0  0
    6.3173   -2.0738   -1.1791 H   0  0  0  0  0  0  0  0  0  0  0  0
    4.8342   -3.0655   -1.0770 H   0  0  0  0  0  0  0  0  0  0  0  0
   -5.3418   -2.2059   -2.1296 H   0  0  0  0  0  0  0  0  0  0  0  0
   -6.4443   -0.8003   -2.2521 H   0  0  0  0  0  0  0  0  0  0  0  0
   -6.2670    2.2990   -1.5704 H   0  0  0  0  0  0  0  0  0  0  0  0
   -4.9151    3.3056   -0.9681 H   0  0  0  0  0  0  0  0  0  0  0  0
   -4.2973   -3.0577    2.3711 H   0  0  0  0  0  0  0  0  0  0  0  0
   -5.4068   -2.0300    3.3211 H   0  0  0  0  0  0  0  0  0  0  0  0
   -5.6259    1.1059    4.0509 H   0  0  0  0  0  0  0  0  0  0  0  0
   -4.5570    2.4615    3.5598 H   0  0  0  0  0  0  0  0  0  0  0  0
    1.1984   -0.8675    6.6601 H   0  0  0  0  0  0  0  0  0  0  0  0
    3.6448   -0.7518    5.7202 H   0  0  0  0  0  0  0  0  0  0  0  0
   -0.5188    0.7971    6.7299 H   0  0  0  0  0  0  0  0  0  0  0  0
   -0.3819    2.1009    5.5132 H   0  0  0  0  0  0  0  0  0  0  0  0
   -0.4697   -3.5332    5.0561 H   0  0  0  0  0  0  0  0  0  0  0  0
   -0.5345   -2.3855    6.4298 H   0  0  0  0  0  0  0  0  0  0  0  0
   -0.0593    2.6325   -0.8319 C   0  0  0  0  0  0  0  0  0  0  0  0
   -0.0575    2.4973    0.5514 C   0  0  0  0  0  0  0  0  0  0  0  0
   -0.0125    3.4936    1.5195 C   0  0  0  0  0  0  0  0  0  0  0  0
    0.0420    4.8713    1.3433 C   0  0  0  0  0  0  0  0  0  0  0  0
    0.0648    5.5928    0.1556 C   0  0  0  0  0  3  0  0  0  0  0  0
    0.0389    5.1149   -1.1493 C   0  0  0  0  0  0  0  0  0  0  0  0
   -0.0164    3.7975   -1.5888 C   0  0  0  0  0  0  0  0  0  0  0  0
   -0.0994    1.7073   -1.3948 H   0  0  0  0  0  0  0  0  0  0  0  0
   -0.0965    1.4805    0.9246 H   0  0  0  0  0  0  0  0  0  0  0  0
   -0.0209    3.1510    2.5477 H   0  0  0  0  0  0  0  0  0  0  0  0
    0.0704    5.4608    2.2523 H   0  0  0  0  0  0  0  0  0  0  0  0
    0.1087    6.6706    0.2609 H   0  0  0  0  0  0  0  0  0  0  0  0
    0.0651    5.8694   -1.9270 H   0  0  0  0  0  0  0  0  0  0  0  0
   -0.0275    3.6605   -2.6638 H   0  0  0  0  0  0  0  0  0  0  0  0
  1  5  1  0
  1 65  1  0
  2  1  1  0
  2  6  1  0
  2  3  1  0
  2 85  1  6
  3  4  1  0
  3  8  1  0
  3 86  1  6
  4  5  1  0
  5  9  2  0
  6 66  1  0
  6  7  1  0
  7 10  2  0
  8 52  1  0
  8  7  1  0
 11 15  1  0
 12 11  1  0
 12 16  1  0
 12 13  1  0
 12 87  1  6
 13 14  1  0
 13 18  1  0
 13 88  1  6
 14 69  1  0
 15 19  2  0
 15 14  1  0
 16 17  1  0
 17 18  1  0
 17 20  2  0
 18 70  1  0
 21 25  1  0
 22 21  1  0
 22 23  1  0
 22 89  1  1
 23 24  1  0
 23 28  1  0
 23 90  1  1
 24 51  1  0
 25 24  1  0
 26 22  1  0
 26 27  1  0
 27 28  1  0
 28 53  1  0
 29 25  2  0
 30 27  2  0
 31 84  1  0
 32 31  1  0
 32 33  1  0
 32 91  1  1
 33 34  1  0
 33 92  1  1
 34 35  1  0
 35 31  1  0
 36 32  1  0
 36 83  1  0
 37 36  1  0
 38 37  1  0
 38 33  1  0
 39 35  2  0
 40 37  2  0
 41 45  1  0
 42 41  1  0
 42 43  1  0
 42 93  1  1
 43 44  1  0
 43 48  1  0
 43 94  1  1
 44 71  1  0
 45 44  1  0
 46 42  1  0
 46 47  1  0
 47 50  2  0
 47 48  1  0
 48 72  1  0
 49 45  2  0
 51 80  1  0
 51 95  1  1
 51 96  1  0
 52 16  1  0
 52 97  1  6
 52 98  1  0
 53 76  1  0
 53 99  1  6
 53100  1  0
 54  4  1  0
 54 11  1  0
 54101  1  6
 54102  1  0
 55 59  1  0
 56 55  1  0
 56 60  1  0
 56 57  1  0
 56103  1  6
 57 58  1  0
 57 62  1  0
 57104  1  6
 58 68  1  0
 59 63  2  0
 59 58  1  0
 60 61  1  0
 61 64  2  0
 61 62  1  0
 62 67  1  0
 65 55  1  0
 65105  1  6
 65106  1  0
 66 60  1  0
 66107  1  1
 66108  1  0
 67 26  1  0
 67109  1  1
 67110  1  0
 68 21  1  0
 68111  1  6
 68112  1  0
 69 41  1  0
 69113  1  1
 69114  1  0
 70 46  1  0
 70115  1  6
 70116  1  0
 71 34  1  0
 71117  1  6
 71118  1  0
 72 38  1  0
 72119  1  1
 72120  1  0
 73 74  1  0
 73 83  1  0
 74 78  1  0
 74 75  1  0
 74121  1  1
 75 80  1  0
 75122  1  1
 76 77  1  0
 76 75  1  0
 77 73  1  0
 78 84  1  0
 79 78  1  0
 80 79  1  0
 81 77  2  0
 82 79  2  0
 83123  1  1
 83124  1  0
 84125  1  1
 84126  1  0
127128  2  0
128129  1  0
129130  2  0
130131  1  0
131132  1  0
132133  2  0
133127  1  0
127134  1  0
128135  1  0
129136  1  0
130137  1  0
131138  1  0
132139  1  0
133140  1  0
M  CHG  1 131   1
M  END
$$$$

     RDKit          3D

140161  0  0  1  0  0  0  0  0999 V2000
    1.3410   -0.5630   -5.0620 N   0  0  0  0  0  0  0  0  0  0  0  0
    1.2350    0.7530   -5.6450 C   0  0  1  0  0  0  0  0  0  0  0  0
   -0.3060    0.9780   -5.7310 C   0  0  1  0  0  0  0  0  0  0  0  0
   -0.8470   -0.3140   -5.4200 N   0  0  0  0  0  0  0  0  0  0  0  0
    0.1230   -1.2290   -5.0420 C   0  0  0  0  0  0  0  0  0  0  0  0
    1.6850    1.8550   -4.8460 N   0  0  0  0  0  0  0  0  0  0  0  0
    0.6440    2.6120   -4.3330 C   0  0  0  0  0  0  0  0  0  0  0  0
   -0.5370    2.0290   -4.7700 N   0  0  0  0  0  0  0  0  0  0  0  0
   -0.0530   -2.4000   -4.8020 O   0  0  0  0  0  0  0  0  0  0  0  0
    0.7490    3.6240   -3.6810 O   0  0  0  0  0  0  0  0  0  0  0  0
   -3.1110   -0.2710   -4.5300 N   0  0  0  0  0  0  0  0  0  0  0  0
   -3.6590    1.0500   -4.4030 C   0  0  1  0  0  0  0  0  0  0  0  0
   -4.7400    0.8890   -3.2890 C   0  0  1  0  0  0  0  0  0  0  0  0
   -4.5400   -0.4620   -2.8270 N   0  0  0  0  0  0  0  0  0  0  0  0
   -3.6610   -1.1740   -3.6330 C   0  0  0  0  0  0  0  0  0  0  0  0
   -2.7860    2.0670   -3.8730 N   0  0  0  0  0  0  0  0  0  0  0  0
   -3.2890    2.6520   -2.7200 C   0  0  0  0  0  0  0  0  0  0  0  0
   -4.4250    1.9420   -2.3680 N   0  0  0  0  0  0  0  0  0  0  0  0
   -3.4600   -2.3640   -3.6020 O   0  0  0  0  0  0  0  0  0  0  0  0
   -2.8550    3.6320   -2.1630 O   0  0  0  0  0  0  0  0  0  0  0  0
    4.9990   -1.6050    0.3100 N   0  0  0  0  0  0  0  0  0  0  0  0
    5.7500   -0.5370    0.9280 C   0  0  2  0  0  0  0  0  0  0  0  0
    5.2890   -0.6010    2.4160 C   0  0  2  0  0  0  0  0  0  0  0  0
    4.5660   -1.8370    2.4860 N   0  0  0  0  0  0  0  0  0  0  0  0
    4.4000   -2.4360    1.2470 C   0  0  0  0  0  0  0  0  0  0  0  0
    5.4160    0.8010    0.5360 N   0  0  0  0  0  0  0  0  0  0  0  0
    4.6970    1.4840    1.5040 C   0  0  0  0  0  0  0  0  0  0  0  0
    4.5220    0.6130    2.5710 N   0  0  0  0  0  0  0  0  0  0  0  0
    3.8850   -3.5070    1.0340 O   0  0  0  0  0  0  0  0  0  0  0  0
    4.3440    2.6380    1.4520 O   0  0  0  0  0  0  0  0  0  0  0  0
   -1.6400   -1.8800    4.8240 N   0  0  0  0  0  0  0  0  0  0  0  0
   -2.2420   -0.6820    5.3320 C   0  0  2  0  0  0  0  0  0  0  0  0
   -3.5860   -0.5950    4.5460 C   0  0  2  0  0  0  0  0  0  0  0  0
   -3.4410   -1.6150    3.5360 N   0  0  0  0  0  0  0  0  0  0  0  0
   -2.3460   -2.4350    3.7680 C   0  0  0  0  0  0  0  0  0  0  0  0
   -1.5920    0.5650    5.0070 N   0  0  0  0  0  0  0  0  0  0  0  0
   -2.4520    1.4580    4.3800 C   0  0  0  0  0  0  0  0  0  0  0  0
   -3.6170    0.7650    4.0920 N   0  0  0  0  0  0  0  0  0  0  0  0
   -2.0890   -3.4700    3.2020 O   0  0  0  0  0  0  0  0  0  0  0  0
   -2.2490    2.6310    4.1800 O   0  0  0  0  0  0  0  0  0  0  0  0
   -5.3360   -0.8900   -0.5730 N   0  0  0  0  0  0  0  0  0  0  0  0
   -5.8430    0.2690    0.1010 C   0  0  1  0  0  0  0  0  0  0  0  0
   -5.6090   -0.0600    1.6080 C   0  0  1  0  0  0  0  0  0  0  0  0
   -4.7930   -1.2490    1.5610 N   0  0  0  0  0  0  0  0  0  0  0  0
   -4.7210   -1.7890    0.2840 C   0  0  0  0  0  0  0  0  0  0  0  0
   -5.1160    1.5030   -0.0830 N   0  0  0  0  0  0  0  0  0  0  0  0
   -4.7190    2.0630    1.1250 C   0  0  0  0  0  0  0  0  0  0  0  0
   -4.9900    1.1310    2.1140 N   0  0  0  0  0  0  0  0  0  0  0  0
   -4.2650   -2.8660   -0.0170 O   0  0  0  0  0  0  0  0  0  0  0  0
   -4.2810    3.1760    1.2910 O   0  0  0  0  0  0  0  0  0  0  0  0
    4.1080   -2.4590    3.6970 C   0  0  2  0  0  0  0  0  0  0  0  0
   -1.7830    2.7370   -4.6570 C   0  0  2  0  0  0  0  0  0  0  0  0
    4.0850    1.1110    3.8490 C   0  0  2  0  0  0  0  0  0  0  0  0
   -2.2240   -0.6910   -5.5800 C   0  0  2  0  0  0  0  0  0  0  0  0
    3.4340   -0.9760   -3.9100 N   0  0  0  0  0  0  0  0  0  0  0  0
    4.3330    0.1440   -3.8890 C   0  0  2  0  0  0  0  0  0  0  0  0
    5.2040   -0.1130   -2.6190 C   0  0  2  0  0  0  0  0  0  0  0  0
    4.6440   -1.3190   -2.0690 N   0  0  0  0  0  0  0  0  0  0  0  0
    3.6480   -1.8630   -2.8660 C   0  0  0  0  0  0  0  0  0  0  0  0
    3.7520    1.4370   -3.6380 N   0  0  0  0  0  0  0  0  0  0  0  0
    4.2370    2.0290   -2.4810 C   0  0  0  0  0  0  0  0  0  0  0  0
    5.0350    1.0890   -1.8480 N   0  0  0  0  0  0  0  0  0  0  0  0
    3.1120   -2.9340   -2.7150 O   0  0  0  0  0  0  0  0  0  0  0  0
    4.0500    3.1670   -2.1250 O   0  0  0  0  0  0  0  0  0  0  0  0
    2.5730   -1.3060   -5.0100 C   0  0  2  0  0  0  0  0  0  0  0  0
    3.0600    2.2120   -4.6330 C   0  0  2  0  0  0  0  0  0  0  0  0
    5.8190    1.4280   -0.6920 C   0  0  1  0  0  0  0  0  0  0  0  0
    5.2590   -2.0850   -1.0220 C   0  0  1  0  0  0  0  0  0  0  0  0
   -5.4730   -1.1550   -1.9770 C   0  0  2  0  0  0  0  0  0  0  0  0
   -5.2450    2.3290   -1.2550 C   0  0  2  0  0  0  0  0  0  0  0  0
   -4.5280   -2.0700    2.7120 C   0  0  1  0  0  0  0  0  0  0  0  0
   -4.7580    1.4120    3.5050 C   0  0  1  0  0  0  0  0  0  0  0  0
    0.8230    0.5110    5.2210 N   0  0  0  0  0  0  0  0  0  0  0  0
    1.3580   -0.7650    5.6070 C   0  0  2  0  0  0  0  0  0  0  0  0
    2.8150   -0.7320    5.0450 C   0  0  2  0  0  0  0  0  0  0  0  0
    2.8710    0.5230    4.3410 N   0  0  0  0  0  0  0  0  0  0  0  0
    1.7250    1.2860    4.5100 C   0  0  0  0  0  0  0  0  0  0  0  0
    0.7840   -1.9250    4.9760 N   0  0  0  0  0  0  0  0  0  0  0  0
    1.7160   -2.6590    4.2570 C   0  0  0  0  0  0  0  0  0  0  0  0
    2.8920   -1.9250    4.2480 N   0  0  0  0  0  0  0  0  0  0  0  0
    1.5670    2.4300    4.1590 O   0  0  0  0  0  0  0  0  0  0  0  0
    1.5540   -3.7580    3.7810 O   0  0  0  0  0  0  0  0  0  0  0  0
   -0.4220    1.0470    5.6940 C   0  0  2  0  0  0  0  0  0  0  0  0
   -0.4700   -2.5100    5.3690 C   0  0  2  0  0  0  0  0  0  0  0  0
    1.8262    0.7519   -6.5368 H   0  0  0  0  0  0  0  0  0  0  0  0
   -0.7495    1.2891   -6.6537 H   0  0  0  0  0  0  0  0  0  0  0  0
   -3.9500    1.3636   -5.3837 H   0  0  0  0  0  0  0  0  0  0  0  0
   -5.7768    0.9872   -3.5345 H   0  0  0  0  0  0  0  0  0  0  0  0
    6.7798   -0.6871    0.6794 H   0  0  0  0  0  0  0  0  0  0  0  0
    6.0161   -0.6201    3.2007 H   0  0  0  0  0  0  0  0  0  0  0  0
   -2.2502   -0.7649    6.3988 H   0  0  0  0  0  0  0  0  0  0  0  0
   -4.5118   -0.7776    5.0504 H   0  0  0  0  0  0  0  0  0  0  0  0
   -6.8362    0.4316   -0.2622 H   0  0  0  0  0  0  0  0  0  0  0  0
   -6.4428   -0.2737    2.2436 H   0  0  0  0  0  0  0  0  0  0  0  0
    4.8774   -2.3529    4.4330 H   0  0  0  0  0  0  0  0  0  0  0  0
    3.8919   -3.4751    3.4407 H   0  0  0  0  0  0  0  0  0  0  0  0
   -2.1734    2.8841   -5.6423 H   0  0  0  0  0  0  0  0  0  0  0  0
   -1.5650    3.6534   -4.1495 H   0  0  0  0  0  0  0  0  0  0  0  0
    3.9317    2.1662    3.7604 H   0  0  0  0  0  0  0  0  0  0  0  0
    4.8506    0.8532    4.5506 H   0  0  0  0  0  0  0  0  0  0  0  0
   -2.2678   -1.7584   -5.6401 H   0  0  0  0  0  0  0  0  0  0  0  0
   -2.5621   -0.1925   -6.4644 H   0  0  0  0  0  0  0  0  0  0  0  0
    4.7992    0.1897   -4.8510 H   0  0  0  0  0  0  0  0  0  0  0  0
    6.2568   -0.2736   -2.7228 H   0  0  0  0  0  0  0  0  0  0  0  0
    3.1093   -1.1235   -5.9177 H   0  0  0  0  0  0  0  0  0  0  0  0
    2.2985   -2.3317   -4.8778 H   0  0  0  0  0  0  0  0  0  0  0  0
    3.0918    3.2385   -4.3327 H   0  0  0  0  0  0  0  0  0  0  0  0
    3.5614    2.0187   -5.5583 H   0  0  0  0  0  0  0  0  0  0  0  0
    5.7623    2.4877   -0.5548 H   0  0  0  0  0  0  0  0  0  0  0  0
    6.8073    1.0705   -0.8930 H   0  0  0  0  0  0  0  0  0  0  0  0
    6.3173   -2.0738   -1.1791 H   0  0  0  0  0  0  0  0  0  0  0  0
    4.8342   -3.0655   -1.0770 H   0  0  0  0  0  0  0  0  0  0  0  0
   -5.3418   -2.2059   -2.1296 H   0  0  0  0  0  0  0  0  0  0  0  0
   -6.4443   -0.8003   -2.2521 H   0  0  0  0  0  0  0  0  0  0  0  0
   -6.2670    2.2990   -1.5704 H   0  0  0  0  0  0  0  0  0  0  0  0
   -4.9151    3.3056   -0.9681 H   0  0  0  0  0  0  0  0  0  0  0  0
   -4.2973   -3.0577    2.3711 H   0  0  0  0  0  0  0  0  0  0  0  0
   -5.4068   -2.0300    3.3211 H   0  0  0  0  0  0  0  0  0  0  0  0
   -5.6259    1.1059    4.0509 H   0  0  0  0  0  0  0  0  0  0  0  0
   -4.5570    2.4615    3.5598 H   0  0  0  0  0  0  0  0  0  0  0  0
    1.1984   -0.8675    6.6601 H   0  0  0  0  0  0  0  0  0  0  0  0
    3.6448   -0.7518    5.7202 H   0  0  0  0  0  0  0  0  0  0  0  0
   -0.5188    0.7971    6.7299 H   0  0  0  0  0  0  0  0  0  0  0  0
   -0.3819    2.1009    5.5132 H   0  0  0  0  0  0  0  0  0  0  0  0
   -0.4697   -3.5332    5.0561 H   0  0  0  0  0  0  0  0  0  0  0  0
   -0.5345   -2.3855    6.4298 H   0  0  0  0  0  0  0  0  0  0  0  0
   -0.0593   -1.0328    1.2228 C   0  0  0  0  0  0  0  0  0  0  0  0
   -0.0575    0.3131    1.5698 C   0  0  0  0  0  0  0  0  0  0  0  0
   -0.0125    1.4232    0.7347 C   0  0  0  0  0  0  0  0  0  0  0  0
    0.0420    1.4617   -0.6536 C   0  0  0  0  0  0  0  0  0  0  0  0
    0.0648    0.3995   -1.5497 C   0  0  0  0  0  3  0  0  0  0  0  0
    0.0389   -0.9636   -1.2789 C   0  0  0  0  0  0  0  0  0  0  0  0
   -0.0164   -1.6010   -0.0450 C   0  0  0  0  0  0  0  0  0  0  0  0
   -0.0994   -1.7317    2.0502 H   0  0  0  0  0  0  0  0  0  0  0  0
   -0.0965    0.5249    2.6319 H   0  0  0  0  0  0  0  0  0  0  0  0
   -0.0209    2.3862    1.2318 H   0  0  0  0  0  0  0  0  0  0  0  0
    0.0704    2.4507   -1.0959 H   0  0  0  0  0  0  0  0  0  0  0  0
    0.1087    0.6697   -2.5984 H   0  0  0  0  0  0  0  0  0  0  0  0
    0.0651   -1.6155   -2.1442 H   0  0  0  0  0  0  0  0  0  0  0  0
   -0.0275   -2.6843   -0.0754 H   0  0  0  0  0  0  0  0  0  0  0  0
  1  5  1  0
  1 65  1  0
  2  1  1  0
  2  6  1  0
  2  3  1  0
  2 85  1  6
  3  4  1  0
  3  8  1  0
  3 86  1  6
  4  5  1  0
  5  9  2  0
  6 66  1  0
  6  7  1  0
  7 10  2  0
  8 52  1  0
  8  7  1  0
 11 15  1  0
 12 11  1  0
 12 16  1  0
 12 13  1  0
 12 87  1  6
 13 14  1  0
 13 18  1  0
 13 88  1  6
 14 69  1  0
 15 19  2  0
 15 14  1  0
 16 17  1  0
 17 18  1  0
 17 20  2  0
 18 70  1  0
 21 25  1  0
 22 21  1  0
 22 23  1  0
 22 89  1  1
 23 24  1  0
 23 28  1  0
 23 90  1  1
 24 51  1  0
 25 24  1  0
 26 22  1  0
 26 27  1  0
 27 28  1  0
 28 53  1  0
 29 25  2  0
 30 27  2  0
 31 84  1  0
 32 31  1  0
 32 33  1  0
 32 91  1  1
 33 34  1  0
 33 92  1  1
 34 35  1  0
 35 31  1  0
 36 32  1  0
 36 83  1  0
 37 36  1  0
 38 37  1  0
 38 33  1  0
 39 35  2  0
 40 37  2  0
 41 45  1  0
 42 41  1  0
 42 43  1  0
 42 93  1  1
 43 44  1  0
 43 48  1  0
 43 94  1  1
 44 71  1  0
 45 44  1  0
 46 42  1  0
 46 47  1  0
 47 50  2  0
 47 48  1  0
 48 72  1  0
 49 45  2  0
 51 80  1  0
 51 95  1  1
 51 96  1  0
 52 16  1  0
 52 97  1  6
 52 98  1  0
 53 76  1  0
 53 99  1  6
 53100  1  0
 54  4  1  0
 54 11  1  0
 54101  1  6
 54102  1  0
 55 59  1  0
 56 55  1  0
 56 60  1  0
 56 57  1  0
 56103  1  6
 57 58  1  0
 57 62  1  0
 57104  1  6
 58 68  1  0
 59 63  2  0
 59 58  1  0
 60 61  1  0
 61 64  2  0
 61 62  1  0
 62 67  1  0
 65 55  1  0
 65105  1  6
 65106  1  0
 66 60  1  0
 66107  1  1
 66108  1  0
 67 26  1  0
 67109  1  1
 67110  1  0
 68 21  1  0
 68111  1  6
 68112  1  0
 69 41  1  0
 69113  1  1
 69114  1  0
 70 46  1  0
 70115  1  6
 70116  1  0
 71 34  1  0
 71117  1  6
 71118  1  0
 72 38  1  0
 72119  1  1
 72120  1  0
 73 74  1  0
 73 83  1  0
 74 78  1  0
 74 75  1  0
 74121  1  1
 75 80  1  0
 75122  1  1
 76 77  1  0
 76 75  1  0
 77 73  1  0
 78 84  1  0
 79 78  1  0
 80 79  1  0
 81 77  2  0
 82 79  2  0
 83123  1  1
 83124  1  0
 84125  1  1
 84126  1  0
127128  2  0
128129  1  0
129130  2  0
130131  1  0
131132  1  0
132133  2  0
133127  1  0
127134  1  0
128135  1  0
129136  1  0
130137  1  0
131138  1  0
132139  1  0
133140  1  0
M  CHG  1 131   1
M  END
$$$$

     RDKit          3D

140161  0  0  1  0  0  0  0  0999 V2000
    1.3410   -0.5630   -5.0620 N   0  0  0  0  0  0  0  0  0  0  0  0
    1.2350    0.7530   -5.6450 C   0  0  1  0  0  0  0  0  0  0  0  0
   -0.3060    0.9780   -5.7310 C   0  0  1  0  0  0  0  0  0  0  0  0
   -0.8470   -0.3140   -5.4200 N   0  0  0  0  0  0  0  0  0  0  0  0
    0.1230   -1.2290   -5.0420 C   0  0  0  0  0  0  0  0  0  0  0  0
    1.6850    1.8550   -4.8460 N   0  0  0  0  0  0  0  0  0  0  0  0
    0.6440    2.6120   -4.3330 C   0  0  0  0  0  0  0  0  0  0  0  0
   -0.5370    2.0290   -4.7700 N   0  0  0  0  0  0  0  0  0  0  0  0
   -0.0530   -2.4000   -4.8020 O   0  0  0  0  0  0  0  0  0  0  0  0
    0.7490    3.6240   -3.6810 O   0  0  0  0  0  0  0  0  0  0  0  0
   -3.1110   -0.2710   -4.5300 N   0  0  0  0  0  0  0  0  0  0  0  0
   -3.6590    1.0500   -4.4030 C   0  0  1  0  0  0  0  0  0  0  0  0
   -4.7400    0.8890   -3.2890 C   0  0  1  0  0  0  0  0  0  0  0  0
   -4.5400   -0.4620   -2.8270 N   0  0  0  0  0  0  0  0  0  0  0  0
   -3.6610   -1.1740   -3.6330 C   0  0  0  0  0  0  0  0  0  0  0  0
   -2.7860    2.0670   -3.8730 N   0  0  0  0  0  0  0  0  0  0  0  0
   -3.2890    2.6520   -2.7200 C   0  0  0  0  0  0  0  0  0  0  0  0
   -4.4250    1.9420   -2.3680 N   0  0  0  0  0  0  0  0  0  0  0  0
   -3.4600   -2.3640   -3.6020 O   0  0  0  0  0  0  0  0  0  0  0  0
   -2.8550    3.6320   -2.1630 O   0  0  0  0  0  0  0  0  0  0  0  0
    4.9990   -1.6050    0.3100 N   0  0  0  0  0  0  0  0  0  0  0  0
    5.7500   -0.5370    0.9280 C   0  0  2  0  0  0  0  0  0  0  0  0
    5.2890   -0.6010    2.4160 C   0  0  2  0  0  0  0  0  0  0  0  0
    4.5660   -1.8370    2.4860 N   0  0  0  0  0  0  0  0  0  0  0  0
    4.4000   -2.4360    1.2470 C   0  0  0  0  0  0  0  0  0  0  0  0
    5.4160    0.8010    0.5360 N   0  0  0  0  0  0  0  0  0  0  0  0
    4.6970    1.4840    1.5040 C   0  0  0  0  0  0  0  0  0  0  0  0
    4.5220    0.6130    2.5710 N   0  0  0  0  0  0  0  0  0  0  0  0
    3.8850   -3.5070    1.0340 O   0  0  0  0  0  0  0  0  0  0  0  0
    4.3440    2.6380    1.4520 O   0  0  0  0  0  0  0  0  0  0  0  0
   -1.6400   -1.8800    4.8240 N   0  0  0  0  0  0  0  0  0  0  0  0
   -2.2420   -0.6820    5.3320 C   0  0  2  0  0  0  0  0  0  0  0  0
   -3.5860   -0.5950    4.5460 C   0  0  2  0  0  0  0  0  0  0  0  0
   -3.4410   -1.6150    3.5360 N   0  0  0  0  0  0  0  0  0  0  0  0
   -2.3460   -2.4350    3.7680 C   0  0  0  0  0  0  0  0  0  0  0  0
   -1.5920    0.5650    5.0070 N   0  0  0  0  0  0  0  0  0  0  0  0
   -2.4520    1.4580    4.3800 C   0  0  0  0  0  0  0  0  0  0  0  0
   -3.6170    0.7650    4.0920 N   0  0  0  0  0  0  0  0  0  0  0  0
   -2.0890   -3.4700    3.2020 O   0  0  0  0  0  0  0  0  0  0  0  0
   -2.2490    2.6310    4.1800 O   0  0  0  0  0  0  0  0  0  0  0  0
   -5.3360   -0.8900   -0.5730 N   0  0  0  0  0  0  0  0  0  0  0  0
   -5.8430    0.2690    0.1010 C   0  0  1  0  0  0  0  0  0  0  0  0
   -5.6090   -0.0600    1.6080 C   0  0  1  0  0  0  0  0  0  0  0  0
   -4.7930   -1.2490    1.5610 N   0  0  0  0  0  0  0  0  0  0  0  0
   -4.7210   -1.7890    0.2840 C   0  0  0  0  0  0  0  0  0  0  0  0
   -5.1160    1.5030   -0.0830 N   0  0  0  0  0  0  0  0  0  0  0  0
   -4.7190    2.0630    1.1250 C   0  0  0  0  0  0  0  0  0  0  0  0
   -4.9900    1.1310    2.1140 N   0  0  0  0  0  0  0  0  0  0  0  0
   -4.2650   -2.8660   -0.0170 O   0  0  0  0  0  0  0  0  0  0  0  0
   -4.2810    3.1760    1.2910 O   0  0  0  0  0  0  0  0  0  0  0  0
    4.1080   -2.4590    3.6970 C   0  0  2  0  0  0  0  0  0  0  0  0
   -1.7830    2.7370   -4.6570 C   0  0  2  0  0  0  0  0  0  0  0  0
    4.0850    1.1110    3.8490 C   0  0  2  0  0  0  0  0  0  0  0  0
   -2.2240   -0.6910   -5.5800 C   0  0  2  0  0  0  0  0  0  0  0  0
    3.4340   -0.9760   -3.9100 N   0  0  0  0  0  0  0  0  0  0  0  0
    4.3330    0.1440   -3.8890 C   0  0  2  0  0  0  0  0  0  0  0  0
    5.2040   -0.1130   -2.6190 C   0  0  2  0  0  0  0  0  0  0  0  0
    4.6440   -1.3190   -2.0690 N   0  0  0  0  0  0  0  0  0  0  0  0
    3.6480   -1.8630   -2.8660 C   0  0  0  0  0  0  0  0  0  0  0  0
    3.7520    1.4370   -3.6380 N   0  0  0  0  0  0  0  0  0  0  0  0
    4.2370    2.0290   -2.4810 C   0  0  0  0  0  0  0  0  0  0  0  0
    5.0350    1.0890   -1.8480 N   0  0  0  0  0  0  0  0  0  0  0  0
    3.1120   -2.9340   -2.7150 O   0  0  0  0  0  0  0  0  0  0  0  0
    4.0500    3.1670   -2.1250 O   0  0  0  0  0  0  0  0  0  0  0  0
    2.5730   -1.3060   -5.0100 C   0  0  2  0  0  0  0  0  0  0  0  0
    3.0600    2.2120   -4.6330 C   0  0  2  0  0  0  0  0  0  0  0  0
    5.8190    1.4280   -0.6920 C   0  0  1  0  0  0  0  0  0  0  0  0
    5.2590   -2.0850   -1.0220 C   0  0  1  0  0  0  0  0  0  0  0  0
   -5.4730   -1.1550   -1.9770 C   0  0  2  0  0  0  0  0  0  0  0  0
   -5.2450    2.3290   -1.2550 C   0  0  2  0  0  0  0  0  0  0  0  0
   -4.5280   -2.0700    2.7120 C   0  0  1  0  0  0  0  0  0  0  0  0
   -4.7580    1.4120    3.5050 C   0  0  1  0  0  0  0  0  0  0  0  0
    0.8230    0.5110    5.2210 N   0  0  0  0  0  0  0  0  0  0  0  0
    1.3580   -0.7650    5.6070 C   0  0  2  0  0  0  0  0  0  0  0  0
    2.8150   -0.7320    5.0450 C   0  0  2  0  0  0  0  0  0  0  0  0
    2.8710    0.5230    4.3410 N   0  0  0  0  0  0  0  0  0  0  0  0
    1.7250    1.2860    4.5100 C   0  0  0  0  0  0  0  0  0  0  0  0
    0.7840   -1.9250    4.9760 N   0  0  0  0  0  0  0  0  0  0  0  0
    1.7160   -2.6590    4.2570 C   0  0  0  0  0  0  0  0  0  0  0  0
    2.8920   -1.9250    4.2480 N   0  0  0  0  0  0  0  0  0  0  0  0
    1.5670    2.4300    4.1590 O   0  0  0  0  0  0  0  0  0  0  0  0
    1.5540   -3.7580    3.7810 O   0  0  0  0  0  0  0  0  0  0  0  0
   -0.4220    1.0470    5.6940 C   0  0  2  0  0  0  0  0  0  0  0  0
   -0.4700   -2.5100    5.3690 C   0  0  2  0  0  0  0  0  0  0  0  0
    1.8262    0.7519   -6.5368 H   0  0  0  0  0  0  0  0  0  0  0  0
   -0.7495    1.2891   -6.6537 H   0  0  0  0  0  0  0  0  0  0  0  0
   -3.9500    1.3636   -5.3837 H   0  0  0  0  0  0  0  0  0  0  0  0
   -5.7768    0.9872   -3.5345 H   0  0  0  0  0  0  0  0  0  0  0  0
    6.7798   -0.6871    0.6794 H   0  0  0  0  0  0  0  0  0  0  0  0
    6.0161   -0.6201    3.2007 H   0  0  0  0  0  0  0  0  0  0  0  0
   -2.2502   -0.7649    6.3988 H   0  0  0  0  0  0  0  0  0  0  0  0
   -4.5118   -0.7776    5.0504 H   0  0  0  0  0  0  0  0  0  0  0  0
   -6.8362    0.4316   -0.2622 H   0  0  0  0  0  0  0  0  0  0  0  0
   -6.4428   -0.2737    2.2436 H   0  0  0  0  0  0  0  0  0  0  0  0
    4.8774   -2.3529    4.4330 H   0  0  0  0  0  0  0  0  0  0  0  0
    3.8919   -3.4751    3.4407 H   0  0  0  0  0  0  0  0  0  0  0  0
   -2.1734    2.8841   -5.6423 H   0  0  0  0  0  0  0  0  0  0  0  0
   -1.5650    3.6534   -4.1495 H   0  0  0  0  0  0  0  0  0  0  0  0
    3.9317    2.1662    3.7604 H   0  0  0  0  0  0  0  0  0  0  0  0
    4.8506    0.8532    4.5506 H   0  0  0  0  0  0  0  0  0  0  0  0
   -2.2678   -1.7584   -5.6401 H   0  0  0  0  0  0  0  0  0  0  0  0
   -2.5621   -0.1925   -6.4644 H   0  0  0  0  0  0  0  0  0  0  0  0
    4.7992    0.1897   -4.8510 H   0  0  0  0  0  0  0  0  0  0  0  0
    6.2568   -0.2736   -2.7228 H   0  0  0  0  0  0  0  0  0  0  0  0
    3.1093   -1.1235   -5.9177 H   0  0  0  0  0  0  0  0  0  0  0  0
    2.2985   -2.3317   -4.8778 H   0  0  0  0  0  0  0  0  0  0  0  0
    3.0918    3.2385   -4.3327 H   0  0  0  0  0  0  0  0  0  0  0  0
    3.5614    2.0187   -5.5583 H   0  0  0  0  0  0  0  0  0  0  0  0
    5.7623    2.4877   -0.5548 H   0  0  0  0  0  0  0  0  0  0  0  0
    6.8073    1.0705   -0.8930 H   0  0  0  0  0  0  0  0  0  0  0  0
    6.3173   -2.0738   -1.1791 H   0  0  0  0  0  0  0  0  0  0  0  0
    4.8342   -3.0655   -1.0770 H   0  0  0  0  0  0  0  0  0  0  0  0
   -5.3418   -2.2059   -2.1296 H   0  0  0  0  0  0  0  0  0  0  0  0
   -6.4443   -0.8003   -2.2521 H   0  0  0  0  0  0  0  0  0  0  0  0
   -6.2670    2.2990   -1.5704 H   0  0  0  0  0  0  0  0  0  0  0  0
   -4.9151    3.3056   -0.9681 H   0  0  0  0  0  0  0  0  0  0  0  0
   -4.2973   -3.0577    2.3711 H   0  0  0  0  0  0  0  0  0  0  0  0
   -5.4068   -2.0300    3.3211 H   0  0  0  0  0  0  0  0  0  0  0  0
   -5.6259    1.1059    4.0509 H   0  0  0  0  0  0  0  0  0  0  0  0
   -4.5570    2.4615    3.5598 H   0  0  0  0  0  0  0  0  0  0  0  0
    1.1984   -0.8675    6.6601 H   0  0  0  0  0  0  0  0  0  0  0  0
    3.6448   -0.7518    5.7202 H   0  0  0  0  0  0  0  0  0  0  0  0
   -0.5188    0.7971    6.7299 H   0  0  0  0  0  0  0  0  0  0  0  0
   -0.3819    2.1009    5.5132 H   0  0  0  0  0  0  0  0  0  0  0  0
   -0.4697   -3.5332    5.0561 H   0  0  0  0  0  0  0  0  0  0  0  0
   -0.5345   -2.3855    6.4298 H   0  0  0  0  0  0  0  0  0  0  0  0
   -0.0593    0.3005    1.2228 C   0  0  0  0  0  0  0  0  0  0  0  0
   -0.0575    1.6464    1.5698 C   0  0  0  0  0  0  0  0  0  0  0  0
   -0.0125    2.7565    0.7347 C   0  0  0  0  0  0  0  0  0  0  0  0
    0.0420    2.7950   -0.6536 C   0  0  0  0  0  0  0  0  0  0  0  0
    0.0648    1.7328   -1.5497 C   0  0  0  0  0  3  0  0  0  0  0  0
    0.0389    0.3698   -1.2789 C   0  0  0  0  0  0  0  0  0  0  0  0
   -0.0164   -0.2676   -0.0450 C   0  0  0  0  0  0  0  0  0  0  0  0
   -0.0994   -0.3984    2.0502 H   0  0  0  0  0  0  0  0  0  0  0  0
   -0.0965    1.8582    2.6319 H   0  0  0  0  0  0  0  0  0  0  0  0
   -0.0209    3.7196    1.2318 H   0  0  0  0  0  0  0  0  0  0  0  0
    0.0704    3.7840   -1.0959 H   0  0  0  0  0  0  0  0  0  0  0  0
    0.1087    2.0031   -2.5984 H   0  0  0  0  0  0  0  0  0  0  0  0
    0.0651   -0.2822   -2.1442 H   0  0  0  0  0  0  0  0  0  0  0  0
   -0.0275   -1.3510   -0.0754 H   0  0  0  0  0  0  0  0  0  0  0  0
  1  5  1  0
  1 65  1  0
  2  1  1  0
  2  6  1  0
  2  3  1  0
  2 85  1  6
  3  4  1  0
  3  8  1  0
  3 86  1  6
  4  5  1  0
  5  9  2  0
  6 66  1  0
  6  7  1  0
  7 10  2  0
  8 52  1  0
  8  7  1  0
 11 15  1  0
 12 11  1  0
 12 16  1  0
 12 13  1  0
 12 87  1  6
 13 14  1  0
 13 18  1  0
 13 88  1  6
 14 69  1  0
 15 19  2  0
 15 14  1  0
 16 17  1  0
 17 18  1  0
 17 20  2  0
 18 70  1  0
 21 25  1  0
 22 21  1  0
 22 23  1  0
 22 89  1  1
 23 24  1  0
 23 28  1  0
 23 90  1  1
 24 51  1  0
 25 24  1  0
 26 22  1  0
 26 27  1  0
 27 28  1  0
 28 53  1  0
 29 25  2  0
 30 27  2  0
 31 84  1  0
 32 31  1  0
 32 33  1  0
 32 91  1  1
 33 34  1  0
 33 92  1  1
 34 35  1  0
 35 31  1  0
 36 32  1  0
 36 83  1  0
 37 36  1  0
 38 37  1  0
 38 33  1  0
 39 35  2  0
 40 37  2  0
 41 45  1  0
 42 41  1  0
 42 43  1  0
 42 93  1  1
 43 44  1  0
 43 48  1  0
 43 94  1  1
 44 71  1  0
 45 44  1  0
 46 42  1  0
 46 47  1  0
 47 50  2  0
 47 48  1  0
 48 72  1  0
 49 45  2  0
 51 80  1  0
 51 95  1  1
 51 96  1  0
 52 16  1  0
 52 97  1  6
 52 98  1  0
 53 76  1  0
 53 99  1  6
 53100  1  0
 54  4  1  0
 54 11  1  0
 54101  1  6
 54102  1  0
 55 59  1  0
 56 55  1  0
 56 60  1  0
 56 57  1  0
 56103  1  6
 57 58  1  0
 57 62  1  0
 57104  1  6
 58 68  1  0
 59 63  2  0
 59 58  1  0
 60 61  1  0
 61 64  2  0
 61 62  1  0
 62 67  1  0
 65 55  1  0
 65105  1  6
 65106  1  0
 66 60  1  0
 66107  1  1
 66108  1  0
 67 26  1  0
 67109  1  1
 67110  1  0
 68 21  1  0
 68111  1  6
 68112  1  0
 69 41  1  0
 69113  1  1
 69114  1  0
 70 46  1  0
 70115  1  6
 70116  1  0
 71 34  1  0
 71117  1  6
 71118  1  0
 72 38  1  0
 72119  1  1
 72120  1  0
 73 74  1  0
 73 83  1  0
 74 78  1  0
 74 75  1  0
 74121  1  1
 75 80  1  0
 75122  1  1
 76 77  1  0
 76 75  1  0
 77 73  1  0
 78 84  1  0
 79 78  1  0
 80 79  1  0
 81 77  2  0
 82 79  2  0
 83123  1  1
 83124  1  0
 84125  1  1
 84126  1  0
127128  2  0
128129  1  0
129130  2  0
130131  1  0
131132  1  0
132133  2  0
133127  1  0
127134  1  0
128135  1  0
129136  1  0
130137  1  0
131138  1  0
132139  1  0
133140  1  0
M  CHG  1 131   1
M  END
$$$$

     RDKit          3D

140161  0  0  1  0  0  0  0  0999 V2000
    1.3410   -0.5630   -5.0620 N   0  0  0  0  0  0  0  0  0  0  0  0
    1.2350    0.7530   -5.6450 C   0  0  1  0  0  0  0  0  0  0  0  0
   -0.3060    0.9780   -5.7310 C   0  0  1  0  0  0  0  0  0  0  0  0
   -0.8470   -0.3140   -5.4200 N   0  0  0  0  0  0  0  0  0  0  0  0
    0.1230   -1.2290   -5.0420 C   0  0  0  0  0  0  0  0  0  0  0  0
    1.6850    1.8550   -4.8460 N   0  0  0  0  0  0  0  0  0  0  0  0
    0.6440    2.6120   -4.3330 C   0  0  0  0  0  0  0  0  0  0  0  0
   -0.5370    2.0290   -4.7700 N   0  0  0  0  0  0  0  0  0  0  0  0
   -0.0530   -2.4000   -4.8020 O   0  0  0  0  0  0  0  0  0  0  0  0
    0.7490    3.6240   -3.6810 O   0  0  0  0  0  0  0  0  0  0  0  0
   -3.1110   -0.2710   -4.5300 N   0  0  0  0  0  0  0  0  0  0  0  0
   -3.6590    1.0500   -4.4030 C   0  0  1  0  0  0  0  0  0  0  0  0
   -4.7400    0.8890   -3.2890 C   0  0  1  0  0  0  0  0  0  0  0  0
   -4.5400   -0.4620   -2.8270 N   0  0  0  0  0  0  0  0  0  0  0  0
   -3.6610   -1.1740   -3.6330 C   0  0  0  0  0  0  0  0  0  0  0  0
   -2.7860    2.0670   -3.8730 N   0  0  0  0  0  0  0  0  0  0  0  0
   -3.2890    2.6520   -2.7200 C   0  0  0  0  0  0  0  0  0  0  0  0
   -4.4250    1.9420   -2.3680 N   0  0  0  0  0  0  0  0  0  0  0  0
   -3.4600   -2.3640   -3.6020 O   0  0  0  0  0  0  0  0  0  0  0  0
   -2.8550    3.6320   -2.1630 O   0  0  0  0  0  0  0  0  0  0  0  0
    4.9990   -1.6050    0.3100 N   0  0  0  0  0  0  0  0  0  0  0  0
    5.7500   -0.5370    0.9280 C   0  0  2  0  0  0  0  0  0  0  0  0
    5.2890   -0.6010    2.4160 C   0  0  2  0  0  0  0  0  0  0  0  0
    4.5660   -1.8370    2.4860 N   0  0  0  0  0  0  0  0  0  0  0  0
    4.4000   -2.4360    1.2470 C   0  0  0  0  0  0  0  0  0  0  0  0
    5.4160    0.8010    0.5360 N   0  0  0  0  0  0  0  0  0  0  0  0
    4.6970    1.4840    1.5040 C   0  0  0  0  0  0  0  0  0  0  0  0
    4.5220    0.6130    2.5710 N   0  0  0  0  0  0  0  0  0  0  0  0
    3.8850   -3.5070    1.0340 O   0  0  0  0  0  0  0  0  0  0  0  0
    4.3440    2.6380    1.4520 O   0  0  0  0  0  0  0  0  0  0  0  0
   -1.6400   -1.8800    4.8240 N   0  0  0  0  0  0  0  0  0  0  0  0
   -2.2420   -0.6820    5.3320 C   0  0  2  0  0  0  0  0  0  0  0  0
   -3.5860   -0.5950    4.5460 C   0  0  2  0  0  0  0  0  0  0  0  0
   -3.4410   -1.6150    3.5360 N   0  0  0  0  0  0  0  0  0  0  0  0
   -2.3460   -2.4350    3.7680 C   0  0  0  0  0  0  0  0  0  0  0  0
   -1.5920    0.5650    5.0070 N   0  0  0  0  0  0  0  0  0  0  0  0
   -2.4520    1.4580    4.3800 C   0  0  0  0  0  0  0  0  0  0  0  0
   -3.6170    0.7650    4.0920 N   0  0  0  0  0  0  0  0  0  0  0  0
   -2.0890   -3.4700    3.2020 O   0  0  0  0  0  0  0  0  0  0  0  0
   -2.2490    2.6310    4.1800 O   0  0  0  0  0  0  0  0  0  0  0  0
   -5.3360   -0.8900   -0.5730 N   0  0  0  0  0  0  0  0  0  0  0  0
   -5.8430    0.2690    0.1010 C   0  0  1  0  0  0  0  0  0  0  0  0
   -5.6090   -0.0600    1.6080 C   0  0  1  0  0  0  0  0  0  0  0  0
   -4.7930   -1.2490    1.5610 N   0  0  0  0  0  0  0  0  0  0  0  0
   -4.7210   -1.7890    0.2840 C   0  0  0  0  0  0  0  0  0  0  0  0
   -5.1160    1.5030   -0.0830 N   0  0  0  0  0  0  0  0  0  0  0  0
   -4.7190    2.0630    1.1250 C   0  0  0  0  0  0  0  0  0  0  0  0
   -4.9900    1.1310    2.1140 N   0  0  0  0  0  0  0  0  0  0  0  0
   -4.2650   -2.8660   -0.0170 O   0  0  0  0  0  0  0  0  0  0  0  0
   -4.2810    3.1760    1.2910 O   0  0  0  0  0  0  0  0  0  0  0  0
    4.1080   -2.4590    3.6970 C   0  0  2  0  0  0  0  0  0  0  0  0
   -1.7830    2.7370   -4.6570 C   0  0  2  0  0  0  0  0  0  0  0  0
    4.0850    1.1110    3.8490 C   0  0  2  0  0  0  0  0  0  0  0  0
   -2.2240   -0.6910   -5.5800 C   0  0  2  0  0  0  0  0  0  0  0  0
    3.4340   -0.9760   -3.9100 N   0  0  0  0  0  0  0  0  0  0  0  0
    4.3330    0.1440   -3.8890 C   0  0  2  0  0  0  0  0  0  0  0  0
    5.2040   -0.1130   -2.6190 C   0  0  2  0  0  0  0  0  0  0  0  0
    4.6440   -1.3190   -2.0690 N   0  0  0  0  0  0  0  0  0  0  0  0
    3.6480   -1.8630   -2.8660 C   0  0  0  0  0  0  0  0  0  0  0  0
    3.7520    1.4370   -3.6380 N   0  0  0  0  0  0  0  0  0  0  0  0
    4.2370    2.0290   -2.4810 C   0  0  0  0  0  0  0  0  0  0  0  0
    5.0350    1.0890   -1.8480 N   0  0  0  0  0  0  0  0  0  0  0  0
    3.1120   -2.9340   -2.7150 O   0  0  0  0  0  0  0  0  0  0  0  0
    4.0500    3.1670   -2.1250 O   0  0  0  0  0  0  0  0  0  0  0  0
    2.5730   -1.3060   -5.0100 C   0  0  2  0  0  0  0  0  0  0  0  0
    3.0600    2.2120   -4.6330 C   0  0  2  0  0  0  0  0  0  0  0  0
    5.8190    1.4280   -0.6920 C   0  0  1  0  0  0  0  0  0  0  0  0
    5.2590   -2.0850   -1.0220 C   0  0  1  0  0  0  0  0  0  0  0  0
   -5.4730   -1.1550   -1.9770 C   0  0  2  0  0  0  0  0  0  0  0  0
   -5.2450    2.3290   -1.2550 C   0  0  2  0  0  0  0  0  0  0  0  0
   -4.5280   -2.0700    2.7120 C   0  0  1  0  0  0  0  0  0  0  0  0
   -4.7580    1.4120    3.5050 C   0  0  1  0  0  0  0  0  0  0  0  0
    0.8230    0.5110    5.2210 N   0  0  0  0  0  0  0  0  0  0  0  0
    1.3580   -0.7650    5.6070 C   0  0  2  0  0  0  0  0  0  0  0  0
    2.8150   -0.7320    5.0450 C   0  0  2  0  0  0  0  0  0  0  0  0
    2.8710    0.5230    4.3410 N   0  0  0  0  0  0  0  0  0  0  0  0
    1.7250    1.2860    4.5100 C   0  0  0  0  0  0  0  0  0  0  0  0
    0.7840   -1.9250    4.9760 N   0  0  0  0  0  0  0  0  0  0  0  0
    1.7160   -2.6590    4.2570 C   0  0  0  0  0  0  0  0  0  0  0  0
    2.8920   -1.9250    4.2480 N   0  0  0  0  0  0  0  0  0  0  0  0
    1.5670    2.4300    4.1590 O   0  0  0  0  0  0  0  0  0  0  0  0
    1.5540   -3.7580    3.7810 O   0  0  0  0  0  0  0  0  0  0  0  0
   -0.4220    1.0470    5.6940 C   0  0  2  0  0  0  0  0  0  0  0  0
   -0.4700   -2.5100    5.3690 C   0  0  2  0  0  0  0  0  0  0  0  0
    1.8262    0.7519   -6.5368 H   0  0  0  0  0  0  0  0  0  0  0  0
   -0.7495    1.2891   -6.6537 H   0  0  0  0  0  0  0  0  0  0  0  0
   -3.9500    1.3636   -5.3837 H   0  0  0  0  0  0  0  0  0  0  0  0
   -5.7768    0.9872   -3.5345 H   0  0  0  0  0  0  0  0  0  0  0  0
    6.7798   -0.6871    0.6794 H   0  0  0  0  0  0  0  0  0  0  0  0
    6.0161   -0.6201    3.2007 H   0  0  0  0  0  0  0  0  0  0  0  0
   -2.2502   -0.7649    6.3988 H   0  0  0  0  0  0  0  0  0  0  0  0
   -4.5118   -0.7776    5.0504 H   0  0  0  0  0  0  0  0  0  0  0  0
   -6.8362    0.4316   -0.2622 H   0  0  0  0  0  0  0  0  0  0  0  0
   -6.4428   -0.2737    2.2436 H   0  0  0  0  0  0  0  0  0  0  0  0
    4.8774   -2.3529    4.4330 H   0  0  0  0  0  0  0  0  0  0  0  0
    3.8919   -3.4751    3.4407 H   0  0  0  0  0  0  0  0  0  0  0  0
   -2.1734    2.8841   -5.6423 H   0  0  0  0  0  0  0  0  0  0  0  0
   -1.5650    3.6534   -4.1495 H   0  0  0  0  0  0  0  0  0  0  0  0
    3.9317    2.1662    3.7604 H   0  0  0  0  0  0  0  0  0  0  0  0
    4.8506    0.8532    4.5506 H   0  0  0  0  0  0  0  0  0  0  0  0
   -2.2678   -1.7584   -5.6401 H   0  0  0  0  0  0  0  0  0  0  0  0
   -2.5621   -0.1925   -6.4644 H   0  0  0  0  0  0  0  0  0  0  0  0
    4.7992    0.1897   -4.8510 H   0  0  0  0  0  0  0  0  0  0  0  0
    6.2568   -0.2736   -2.7228 H   0  0  0  0  0  0  0  0  0  0  0  0
    3.1093   -1.1235   -5.9177 H   0  0  0  0  0  0  0  0  0  0  0  0
    2.2985   -2.3317   -4.8778 H   0  0  0  0  0  0  0  0  0  0  0  0
    3.0918    3.2385   -4.3327 H   0  0  0  0  0  0  0  0  0  0  0  0
    3.5614    2.0187   -5.5583 H   0  0  0  0  0  0  0  0  0  0  0  0
    5.7623    2.4877   -0.5548 H   0  0  0  0  0  0  0  0  0  0  0  0
    6.8073    1.0705   -0.8930 H   0  0  0  0  0  0  0  0  0  0  0  0
    6.3173   -2.0738   -1.1791 H   0  0  0  0  0  0  0  0  0  0  0  0
    4.8342   -3.0655   -1.0770 H   0  0  0  0  0  0  0  0  0  0  0  0
   -5.3418   -2.2059   -2.1296 H   0  0  0  0  0  0  0  0  0  0  0  0
   -6.4443   -0.8003   -2.2521 H   0  0  0  0  0  0  0  0  0  0  0  0
   -6.2670    2.2990   -1.5704 H   0  0  0  0  0  0  0  0  0  0  0  0
   -4.9151    3.3056   -0.9681 H   0  0  0  0  0  0  0  0  0  0  0  0
   -4.2973   -3.0577    2.3711 H   0  0  0  0  0  0  0  0  0  0  0  0
   -5.4068   -2.0300    3.3211 H   0  0  0  0  0  0  0  0  0  0  0  0
   -5.6259    1.1059    4.0509 H   0  0  0  0  0  0  0  0  0  0  0  0
   -4.5570    2.4615    3.5598 H   0  0  0  0  0  0  0  0  0  0  0  0
    1.1984   -0.8675    6.6601 H   0  0  0  0  0  0  0  0  0  0  0  0
    3.6448   -0.7518    5.7202 H   0  0  0  0  0  0  0  0  0  0  0  0
   -0.5188    0.7971    6.7299 H   0  0  0  0  0  0  0  0  0  0  0  0
   -0.3819    2.1009    5.5132 H   0  0  0  0  0  0  0  0  0  0  0  0
   -0.4697   -3.5332    5.0561 H   0  0  0  0  0  0  0  0  0  0  0  0
   -0.5345   -2.3855    6.4298 H   0  0  0  0  0  0  0  0  0  0  0  0
   -0.0593    1.6338    1.2228 C   0  0  0  0  0  0  0  0  0  0  0  0
   -0.0575    2.9797    1.5698 C   0  0  0  0  0  0  0  0  0  0  0  0
   -0.0125    4.0899    0.7347 C   0  0  0  0  0  0  0  0  0  0  0  0
    0.0420    4.1283   -0.6536 C   0  0  0  0  0  0  0  0  0  0  0  0
    0.0648    3.0661   -1.5497 C   0  0  0  0  0  3  0  0  0  0  0  0
    0.0389    1.7031   -1.2789 C   0  0  0  0  0  0  0  0  0  0  0  0
   -0.0164    1.0657   -0.0450 C   0  0  0  0  0  0  0  0  0  0  0  0
   -0.0994    0.9349    2.0502 H   0  0  0  0  0  0  0  0  0  0  0  0
   -0.0965    3.1915    2.6319 H   0  0  0  0  0  0  0  0  0  0  0  0
   -0.0209    5.0529    1.2318 H   0  0  0  0  0  0  0  0  0  0  0  0
    0.0704    5.1174   -1.0959 H   0  0  0  0  0  0  0  0  0  0  0  0
    0.1087    3.3364   -2.5984 H   0  0  0  0  0  0  0  0  0  0  0  0
    0.0651    1.0511   -2.1442 H   0  0  0  0  0  0  0  0  0  0  0  0
   -0.0275   -0.0176   -0.0754 H   0  0  0  0  0  0  0  0  0  0  0  0
  1  5  1  0
  1 65  1  0
  2  1  1  0
  2  6  1  0
  2  3  1  0
  2 85  1  6
  3  4  1  0
  3  8  1  0
  3 86  1  6
  4  5  1  0
  5  9  2  0
  6 66  1  0
  6  7  1  0
  7 10  2  0
  8 52  1  0
  8  7  1  0
 11 15  1  0
 12 11  1  0
 12 16  1  0
 12 13  1  0
 12 87  1  6
 13 14  1  0
 13 18  1  0
 13 88  1  6
 14 69  1  0
 15 19  2  0
 15 14  1  0
 16 17  1  0
 17 18  1  0
 17 20  2  0
 18 70  1  0
 21 25  1  0
 22 21  1  0
 22 23  1  0
 22 89  1  1
 23 24  1  0
 23 28  1  0
 23 90  1  1
 24 51  1  0
 25 24  1  0
 26 22  1  0
 26 27  1  0
 27 28  1  0
 28 53  1  0
 29 25  2  0
 30 27  2  0
 31 84  1  0
 32 31  1  0
 32 33  1  0
 32 91  1  1
 33 34  1  0
 33 92  1  1
 34 35  1  0
 35 31  1  0
 36 32  1  0
 36 83  1  0
 37 36  1  0
 38 37  1  0
 38 33  1  0
 39 35  2  0
 40 37  2  0
 41 45  1  0
 42 41  1  0
 42 43  1  0
 42 93  1  1
 43 44  1  0
 43 48  1  0
 43 94  1  1
 44 71  1  0
 45 44  1  0
 46 42  1  0
 46 47  1  0
 47 50  2  0
 47 48  1  0
 48 72  1  0
 49 45  2  0
 51 80  1  0
 51 95  1  1
 51 96  1  0
 52 16  1  0
 52 97  1  6
 52 98  1  0
 53 76  1  0
 53 99  1  6
 53100  1  0
 54  4  1  0
 54 11  1  0
 54101  1  6
 54102  1  0
 55 59  1  0
 56 55  1  0
 56 60  1  0
 56 57  1  0
 56103  1  6
 57 58  1  0
 57 62  1  0
 57104  1  6
 58 68  1  0
 59 63  2  0
 59 58  1  0
 60 61  1  0
 61 64  2  0
 61 62  1  0
 62 67  1  0
 65 55  1  0
 65105  1  6
 65106  1  0
 66 60  1  0
 66107  1  1
 66108  1  0
 67 26  1  0
 67109  1  1
 67110  1  0
 68 21  1  0
 68111  1  6
 68112  1  0
 69 41  1  0
 69113  1  1
 69114  1  0
 70 46  1  0
 70115  1  6
 70116  1  0
 71 34  1  0
 71117  1  6
 71118  1  0
 72 38  1  0
 72119  1  1
 72120  1  0
 73 74  1  0
 73 83  1  0
 74 78  1  0
 74 75  1  0
 74121  1  1
 75 80  1  0
 75122  1  1
 76 77  1  0
 76 75  1  0
 77 73  1  0
 78 84  1  0
 79 78  1  0
 80 79  1  0
 81 77  2  0
 82 79  2  0
 83123  1  1
 83124  1  0
 84125  1  1
 84126  1  0
127128  2  0
128129  1  0
129130  2  0
130131  1  0
131132  1  0
132133  2  0
133127  1  0
127134  1  0
128135  1  0
129136  1  0
130137  1  0
131138  1  0
132139  1  0
133140  1  0
M  CHG  1 131   1
M  END
$$$$

     RDKit          3D

140161  0  0  1  0  0  0  0  0999 V2000
    1.3410   -0.5630   -5.0620 N   0  0  0  0  0  0  0  0  0  0  0  0
    1.2350    0.7530   -5.6450 C   0  0  1  0  0  0  0  0  0  0  0  0
   -0.3060    0.9780   -5.7310 C   0  0  1  0  0  0  0  0  0  0  0  0
   -0.8470   -0.3140   -5.4200 N   0  0  0  0  0  0  0  0  0  0  0  0
    0.1230   -1.2290   -5.0420 C   0  0  0  0  0  0  0  0  0  0  0  0
    1.6850    1.8550   -4.8460 N   0  0  0  0  0  0  0  0  0  0  0  0
    0.6440    2.6120   -4.3330 C   0  0  0  0  0  0  0  0  0  0  0  0
   -0.5370    2.0290   -4.7700 N   0  0  0  0  0  0  0  0  0  0  0  0
   -0.0530   -2.4000   -4.8020 O   0  0  0  0  0  0  0  0  0  0  0  0
    0.7490    3.6240   -3.6810 O   0  0  0  0  0  0  0  0  0  0  0  0
   -3.1110   -0.2710   -4.5300 N   0  0  0  0  0  0  0  0  0  0  0  0
   -3.6590    1.0500   -4.4030 C   0  0  1  0  0  0  0  0  0  0  0  0
   -4.7400    0.8890   -3.2890 C   0  0  1  0  0  0  0  0  0  0  0  0
   -4.5400   -0.4620   -2.8270 N   0  0  0  0  0  0  0  0  0  0  0  0
   -3.6610   -1.1740   -3.6330 C   0  0  0  0  0  0  0  0  0  0  0  0
   -2.7860    2.0670   -3.8730 N   0  0  0  0  0  0  0  0  0  0  0  0
   -3.2890    2.6520   -2.7200 C   0  0  0  0  0  0  0  0  0  0  0  0
   -4.4250    1.9420   -2.3680 N   0  0  0  0  0  0  0  0  0  0  0  0
   -3.4600   -2.3640   -3.6020 O   0  0  0  0  0  0  0  0  0  0  0  0
   -2.8550    3.6320   -2.1630 O   0  0  0  0  0  0  0  0  0  0  0  0
    4.9990   -1.6050    0.3100 N   0  0  0  0  0  0  0  0  0  0  0  0
    5.7500   -0.5370    0.9280 C   0  0  2  0  0  0  0  0  0  0  0  0
    5.2890   -0.6010    2.4160 C   0  0  2  0  0  0  0  0  0  0  0  0
    4.5660   -1.8370    2.4860 N   0  0  0  0  0  0  0  0  0  0  0  0
    4.4000   -2.4360    1.2470 C   0  0  0  0  0  0  0  0  0  0  0  0
    5.4160    0.8010    0.5360 N   0  0  0  0  0  0  0  0  0  0  0  0
    4.6970    1.4840    1.5040 C   0  0  0  0  0  0  0  0  0  0  0  0
    4.5220    0.6130    2.5710 N   0  0  0  0  0  0  0  0  0  0  0  0
    3.8850   -3.5070    1.0340 O   0  0  0  0  0  0  0  0  0  0  0  0
    4.3440    2.6380    1.4520 O   0  0  0  0  0  0  0  0  0  0  0  0
   -1.6400   -1.8800    4.8240 N   0  0  0  0  0  0  0  0  0  0  0  0
   -2.2420   -0.6820    5.3320 C   0  0  2  0  0  0  0  0  0  0  0  0
   -3.5860   -0.5950    4.5460 C   0  0  2  0  0  0  0  0  0  0  0  0
   -3.4410   -1.6150    3.5360 N   0  0  0  0  0  0  0  0  0  0  0  0
   -2.3460   -2.4350    3.7680 C   0  0  0  0  0  0  0  0  0  0  0  0
   -1.5920    0.5650    5.0070 N   0  0  0  0  0  0  0  0  0  0  0  0
   -2.4520    1.4580    4.3800 C   0  0  0  0  0  0  0  0  0  0  0  0
   -3.6170    0.7650    4.0920 N   0  0  0  0  0  0  0  0  0  0  0  0
   -2.0890   -3.4700    3.2020 O   0  0  0  0  0  0  0  0  0  0  0  0
   -2.2490    2.6310    4.1800 O   0  0  0  0  0  0  0  0  0  0  0  0
   -5.3360   -0.8900   -0.5730 N   0  0  0  0  0  0  0  0  0  0  0  0
   -5.8430    0.2690    0.1010 C   0  0  1  0  0  0  0  0  0  0  0  0
   -5.6090   -0.0600    1.6080 C   0  0  1  0  0  0  0  0  0  0  0  0
   -4.7930   -1.2490    1.5610 N   0  0  0  0  0  0  0  0  0  0  0  0
   -4.7210   -1.7890    0.2840 C   0  0  0  0  0  0  0  0  0  0  0  0
   -5.1160    1.5030   -0.0830 N   0  0  0  0  0  0  0  0  0  0  0  0
   -4.7190    2.0630    1.1250 C   0  0  0  0  0  0  0  0  0  0  0  0
   -4.9900    1.1310    2.1140 N   0  0  0  0  0  0  0  0  0  0  0  0
   -4.2650   -2.8660   -0.0170 O   0  0  0  0  0  0  0  0  0  0  0  0
   -4.2810    3.1760    1.2910 O   0  0  0  0  0  0  0  0  0  0  0  0
    4.1080   -2.4590    3.6970 C   0  0  2  0  0  0  0  0  0  0  0  0
   -1.7830    2.7370   -4.6570 C   0  0  2  0  0  0  0  0  0  0  0  0
    4.0850    1.1110    3.8490 C   0  0  2  0  0  0  0  0  0  0  0  0
   -2.2240   -0.6910   -5.5800 C   0  0  2  0  0  0  0  0  0  0  0  0
    3.4340   -0.9760   -3.9100 N   0  0  0  0  0  0  0  0  0  0  0  0
    4.3330    0.1440   -3.8890 C   0  0  2  0  0  0  0  0  0  0  0  0
    5.2040   -0.1130   -2.6190 C   0  0  2  0  0  0  0  0  0  0  0  0
    4.6440   -1.3190   -2.0690 N   0  0  0  0  0  0  0  0  0  0  0  0
    3.6480   -1.8630   -2.8660 C   0  0  0  0  0  0  0  0  0  0  0  0
    3.7520    1.4370   -3.6380 N   0  0  0  0  0  0  0  0  0  0  0  0
    4.2370    2.0290   -2.4810 C   0  0  0  0  0  0  0  0  0  0  0  0
    5.0350    1.0890   -1.8480 N   0  0  0  0  0  0  0  0  0  0  0  0
    3.1120   -2.9340   -2.7150 O   0  0  0  0  0  0  0  0  0  0  0  0
    4.0500    3.1670   -2.1250 O   0  0  0  0  0  0  0  0  0  0  0  0
    2.5730   -1.3060   -5.0100 C   0  0  2  0  0  0  0  0  0  0  0  0
    3.0600    2.2120   -4.6330 C   0  0  2  0  0  0  0  0  0  0  0  0
    5.8190    1.4280   -0.6920 C   0  0  1  0  0  0  0  0  0  0  0  0
    5.2590   -2.0850   -1.0220 C   0  0  1  0  0  0  0  0  0  0  0  0
   -5.4730   -1.1550   -1.9770 C   0  0  2  0  0  0  0  0  0  0  0  0
   -5.2450    2.3290   -1.2550 C   0  0  2  0  0  0  0  0  0  0  0  0
   -4.5280   -2.0700    2.7120 C   0  0  1  0  0  0  0  0  0  0  0  0
   -4.7580    1.4120    3.5050 C   0  0  1  0  0  0  0  0  0  0  0  0
    0.8230    0.5110    5.2210 N   0  0  0  0  0  0  0  0  0  0  0  0
    1.3580   -0.7650    5.6070 C   0  0  2  0  0  0  0  0  0  0  0  0
    2.8150   -0.7320    5.0450 C   0  0  2  0  0  0  0  0  0  0  0  0
    2.8710    0.5230    4.3410 N   0  0  0  0  0  0  0  0  0  0  0  0
    1.7250    1.2860    4.5100 C   0  0  0  0  0  0  0  0  0  0  0  0
    0.7840   -1.9250    4.9760 N   0  0  0  0  0  0  0  0  0  0  0  0
    1.7160   -2.6590    4.2570 C   0  0  0  0  0  0  0  0  0  0  0  0
    2.8920   -1.9250    4.2480 N   0  0  0  0  0  0  0  0  0  0  0  0
    1.5670    2.4300    4.1590 O   0  0  0  0  0  0  0  0  0  0  0  0
    1.5540   -3.7580    3.7810 O   0  0  0  0  0  0  0  0  0  0  0  0
   -0.4220    1.0470    5.6940 C   0  0  2  0  0  0  0  0  0  0  0  0
   -0.4700   -2.5100    5.3690 C   0  0  2  0  0  0  0  0  0  0  0  0
    1.8262    0.7519   -6.5368 H   0  0  0  0  0  0  0  0  0  0  0  0
   -0.7495    1.2891   -6.6537 H   0  0  0  0  0  0  0  0  0  0  0  0
   -3.9500    1.3636   -5.3837 H   0  0  0  0  0  0  0  0  0  0  0  0
   -5.7768    0.9872   -3.5345 H   0  0  0  0  0  0  0  0  0  0  0  0
    6.7798   -0.6871    0.6794 H   0  0  0  0  0  0  0  0  0  0  0  0
    6.0161   -0.6201    3.2007 H   0  0  0  0  0  0  0  0  0  0  0  0
   -2.2502   -0.7649    6.3988 H   0  0  0  0  0  0  0  0  0  0  0  0
   -4.5118   -0.7776    5.0504 H   0  0  0  0  0  0  0  0  0  0  0  0
   -6.8362    0.4316   -0.2622 H   0  0  0  0  0  0  0  0  0  0  0  0
   -6.4428   -0.2737    2.2436 H   0  0  0  0  0  0  0  0  0  0  0  0
    4.8774   -2.3529    4.4330 H   0  0  0  0  0  0  0  0  0  0  0  0
    3.8919   -3.4751    3.4407 H   0  0  0  0  0  0  0  0  0  0  0  0
   -2.1734    2.8841   -5.6423 H   0  0  0  0  0  0  0  0  0  0  0  0
   -1.5650    3.6534   -4.1495 H   0  0  0  0  0  0  0  0  0  0  0  0
    3.9317    2.1662    3.7604 H   0  0  0  0  0  0  0  0  0  0  0  0
    4.8506    0.8532    4.5506 H   0  0  0  0  0  0  0  0  0  0  0  0
   -2.2678   -1.7584   -5.6401 H   0  0  0  0  0  0  0  0  0  0  0  0
   -2.5621   -0.1925   -6.4644 H   0  0  0  0  0  0  0  0  0  0  0  0
    4.7992    0.1897   -4.8510 H   0  0  0  0  0  0  0  0  0  0  0  0
    6.2568   -0.2736   -2.7228 H   0  0  0  0  0  0  0  0  0  0  0  0
    3.1093   -1.1235   -5.9177 H   0  0  0  0  0  0  0  0  0  0  0  0
    2.2985   -2.3317   -4.8778 H   0  0  0  0  0  0  0  0  0  0  0  0
    3.0918    3.2385   -4.3327 H   0  0  0  0  0  0  0  0  0  0  0  0
    3.5614    2.0187   -5.5583 H   0  0  0  0  0  0  0  0  0  0  0  0
    5.7623    2.4877   -0.5548 H   0  0  0  0  0  0  0  0  0  0  0  0
    6.8073    1.0705   -0.8930 H   0  0  0  0  0  0  0  0  0  0  0  0
    6.3173   -2.0738   -1.1791 H   0  0  0  0  0  0  0  0  0  0  0  0
    4.8342   -3.0655   -1.0770 H   0  0  0  0  0  0  0  0  0  0  0  0
   -5.3418   -2.2059   -2.1296 H   0  0  0  0  0  0  0  0  0  0  0  0
   -6.4443   -0.8003   -2.2521 H   0  0  0  0  0  0  0  0  0  0  0  0
   -6.2670    2.2990   -1.5704 H   0  0  0  0  0  0  0  0  0  0  0  0
   -4.9151    3.3056   -0.9681 H   0  0  0  0  0  0  0  0  0  0  0  0
   -4.2973   -3.0577    2.3711 H   0  0  0  0  0  0  0  0  0  0  0  0
   -5.4068   -2.0300    3.3211 H   0  0  0  0  0  0  0  0  0  0  0  0
   -5.6259    1.1059    4.0509 H   0  0  0  0  0  0  0  0  0  0  0  0
   -4.5570    2.4615    3.5598 H   0  0  0  0  0  0  0  0  0  0  0  0
    1.1984   -0.8675    6.6601 H   0  0  0  0  0  0  0  0  0  0  0  0
    3.6448   -0.7518    5.7202 H   0  0  0  0  0  0  0  0  0  0  0  0
   -0.5188    0.7971    6.7299 H   0  0  0  0  0  0  0  0  0  0  0  0
   -0.3819    2.1009    5.5132 H   0  0  0  0  0  0  0  0  0  0  0  0
   -0.4697   -3.5332    5.0561 H   0  0  0  0  0  0  0  0  0  0  0  0
   -0.5345   -2.3855    6.4298 H   0  0  0  0  0  0  0  0  0  0  0  0
   -0.0593    2.9672    1.2228 C   0  0  0  0  0  0  0  0  0  0  0  0
   -0.0575    4.3131    1.5698 C   0  0  0  0  0  0  0  0  0  0  0  0
   -0.0125    5.4232    0.7347 C   0  0  0  0  0  0  0  0  0  0  0  0
    0.0420    5.4617   -0.6536 C   0  0  0  0  0  0  0  0  0  0  0  0
    0.0648    4.3995   -1.5497 C   0  0  0  0  0  3  0  0  0  0  0  0
    0.0389    3.0364   -1.2789 C   0  0  0  0  0  0  0  0  0  0  0  0
   -0.0164    2.3990   -0.0450 C   0  0  0  0  0  0  0  0  0  0  0  0
   -0.0994    2.2683    2.0502 H   0  0  0  0  0  0  0  0  0  0  0  0
   -0.0965    4.5249    2.6319 H   0  0  0  0  0  0  0  0  0  0  0  0
   -0.0209    6.3862    1.2318 H   0  0  0  0  0  0  0  0  0  0  0  0
    0.0704    6.4507   -1.0959 H   0  0  0  0  0  0  0  0  0  0  0  0
    0.1087    4.6697   -2.5984 H   0  0  0  0  0  0  0  0  0  0  0  0
    0.0651    2.3845   -2.1442 H   0  0  0  0  0  0  0  0  0  0  0  0
   -0.0275    1.3157   -0.0754 H   0  0  0  0  0  0  0  0  0  0  0  0
  1  5  1  0
  1 65  1  0
  2  1  1  0
  2  6  1  0
  2  3  1  0
  2 85  1  6
  3  4  1  0
  3  8  1  0
  3 86  1  6
  4  5  1  0
  5  9  2  0
  6 66  1  0
  6  7  1  0
  7 10  2  0
  8 52  1  0
  8  7  1  0
 11 15  1  0
 12 11  1  0
 12 16  1  0
 12 13  1  0
 12 87  1  6
 13 14  1  0
 13 18  1  0
 13 88  1  6
 14 69  1  0
 15 19  2  0
 15 14  1  0
 16 17  1  0
 17 18  1  0
 17 20  2  0
 18 70  1  0
 21 25  1  0
 22 21  1  0
 22 23  1  0
 22 89  1  1
 23 24  1  0
 23 28  1  0
 23 90  1  1
 24 51  1  0
 25 24  1  0
 26 22  1  0
 26 27  1  0
 27 28  1  0
 28 53  1  0
 29 25  2  0
 30 27  2  0
 31 84  1  0
 32 31  1  0
 32 33  1  0
 32 91  1  1
 33 34  1  0
 33 92  1  1
 34 35  1  0
 35 31  1  0
 36 32  1  0
 36 83  1  0
 37 36  1  0
 38 37  1  0
 38 33  1  0
 39 35  2  0
 40 37  2  0
 41 45  1  0
 42 41  1  0
 42 43  1  0
 42 93  1  1
 43 44  1  0
 43 48  1  0
 43 94  1  1
 44 71  1  0
 45 44  1  0
 46 42  1  0
 46 47  1  0
 47 50  2  0
 47 48  1  0
 48 72  1  0
 49 45  2  0
 51 80  1  0
 51 95  1  1
 51 96  1  0
 52 16  1  0
 52 97  1  6
 52 98  1  0
 53 76  1  0
 53 99  1  6
 53100  1  0
 54  4  1  0
 54 11  1  0
 54101  1  6
 54102  1  0
 55 59  1  0
 56 55  1  0
 56 60  1  0
 56 57  1  0
 56103  1  6
 57 58  1  0
 57 62  1  0
 57104  1  6
 58 68  1  0
 59 63  2  0
 59 58  1  0
 60 61  1  0
 61 64  2  0
 61 62  1  0
 62 67  1  0
 65 55  1  0
 65105  1  6
 65106  1  0
 66 60  1  0
 66107  1  1
 66108  1  0
 67 26  1  0
 67109  1  1
 67110  1  0
 68 21  1  0
 68111  1  6
 68112  1  0
 69 41  1  0
 69113  1  1
 69114  1  0
 70 46  1  0
 70115  1  6
 70116  1  0
 71 34  1  0
 71117  1  6
 71118  1  0
 72 38  1  0
 72119  1  1
 72120  1  0
 73 74  1  0
 73 83  1  0
 74 78  1  0
 74 75  1  0
 74121  1  1
 75 80  1  0
 75122  1  1
 76 77  1  0
 76 75  1  0
 77 73  1  0
 78 84  1  0
 79 78  1  0
 80 79  1  0
 81 77  2  0
 82 79  2  0
 83123  1  1
 83124  1  0
 84125  1  1
 84126  1  0
127128  2  0
128129  1  0
129130  2  0
130131  1  0
131132  1  0
132133  2  0
133127  1  0
127134  1  0
128135  1  0
129136  1  0
130137  1  0
131138  1  0
132139  1  0
133140  1  0
M  CHG  1 131   1
M  END
$$$$

     RDKit          3D

140161  0  0  1  0  0  0  0  0999 V2000
    1.3410   -0.5630   -5.0620 N   0  0  0  0  0  0  0  0  0  0  0  0
    1.2350    0.7530   -5.6450 C   0  0  1  0  0  0  0  0  0  0  0  0
   -0.3060    0.9780   -5.7310 C   0  0  1  0  0  0  0  0  0  0  0  0
   -0.8470   -0.3140   -5.4200 N   0  0  0  0  0  0  0  0  0  0  0  0
    0.1230   -1.2290   -5.0420 C   0  0  0  0  0  0  0  0  0  0  0  0
    1.6850    1.8550   -4.8460 N   0  0  0  0  0  0  0  0  0  0  0  0
    0.6440    2.6120   -4.3330 C   0  0  0  0  0  0  0  0  0  0  0  0
   -0.5370    2.0290   -4.7700 N   0  0  0  0  0  0  0  0  0  0  0  0
   -0.0530   -2.4000   -4.8020 O   0  0  0  0  0  0  0  0  0  0  0  0
    0.7490    3.6240   -3.6810 O   0  0  0  0  0  0  0  0  0  0  0  0
   -3.1110   -0.2710   -4.5300 N   0  0  0  0  0  0  0  0  0  0  0  0
   -3.6590    1.0500   -4.4030 C   0  0  1  0  0  0  0  0  0  0  0  0
   -4.7400    0.8890   -3.2890 C   0  0  1  0  0  0  0  0  0  0  0  0
   -4.5400   -0.4620   -2.8270 N   0  0  0  0  0  0  0  0  0  0  0  0
   -3.6610   -1.1740   -3.6330 C   0  0  0  0  0  0  0  0  0  0  0  0
   -2.7860    2.0670   -3.8730 N   0  0  0  0  0  0  0  0  0  0  0  0
   -3.2890    2.6520   -2.7200 C   0  0  0  0  0  0  0  0  0  0  0  0
   -4.4250    1.9420   -2.3680 N   0  0  0  0  0  0  0  0  0  0  0  0
   -3.4600   -2.3640   -3.6020 O   0  0  0  0  0  0  0  0  0  0  0  0
   -2.8550    3.6320   -2.1630 O   0  0  0  0  0  0  0  0  0  0  0  0
    4.9990   -1.6050    0.3100 N   0  0  0  0  0  0  0  0  0  0  0  0
    5.7500   -0.5370    0.9280 C   0  0  2  0  0  0  0  0  0  0  0  0
    5.2890   -0.6010    2.4160 C   0  0  2  0  0  0  0  0  0  0  0  0
    4.5660   -1.8370    2.4860 N   0  0  0  0  0  0  0  0  0  0  0  0
    4.4000   -2.4360    1.2470 C   0  0  0  0  0  0  0  0  0  0  0  0
    5.4160    0.8010    0.5360 N   0  0  0  0  0  0  0  0  0  0  0  0
    4.6970    1.4840    1.5040 C   0  0  0  0  0  0  0  0  0  0  0  0
    4.5220    0.6130    2.5710 N   0  0  0  0  0  0  0  0  0  0  0  0
    3.8850   -3.5070    1.0340 O   0  0  0  0  0  0  0  0  0  0  0  0
    4.3440    2.6380    1.4520 O   0  0  0  0  0  0  0  0  0  0  0  0
   -1.6400   -1.8800    4.8240 N   0  0  0  0  0  0  0  0  0  0  0  0
   -2.2420   -0.6820    5.3320 C   0  0  2  0  0  0  0  0  0  0  0  0
   -3.5860   -0.5950    4.5460 C   0  0  2  0  0  0  0  0  0  0  0  0
   -3.4410   -1.6150    3.5360 N   0  0  0  0  0  0  0  0  0  0  0  0
   -2.3460   -2.4350    3.7680 C   0  0  0  0  0  0  0  0  0  0  0  0
   -1.5920    0.5650    5.0070 N   0  0  0  0  0  0  0  0  0  0  0  0
   -2.4520    1.4580    4.3800 C   0  0  0  0  0  0  0  0  0  0  0  0
   -3.6170    0.7650    4.0920 N   0  0  0  0  0  0  0  0  0  0  0  0
   -2.0890   -3.4700    3.2020 O   0  0  0  0  0  0  0  0  0  0  0  0
   -2.2490    2.6310    4.1800 O   0  0  0  0  0  0  0  0  0  0  0  0
   -5.3360   -0.8900   -0.5730 N   0  0  0  0  0  0  0  0  0  0  0  0
   -5.8430    0.2690    0.1010 C   0  0  1  0  0  0  0  0  0  0  0  0
   -5.6090   -0.0600    1.6080 C   0  0  1  0  0  0  0  0  0  0  0  0
   -4.7930   -1.2490    1.5610 N   0  0  0  0  0  0  0  0  0  0  0  0
   -4.7210   -1.7890    0.2840 C   0  0  0  0  0  0  0  0  0  0  0  0
   -5.1160    1.5030   -0.0830 N   0  0  0  0  0  0  0  0  0  0  0  0
   -4.7190    2.0630    1.1250 C   0  0  0  0  0  0  0  0  0  0  0  0
   -4.9900    1.1310    2.1140 N   0  0  0  0  0  0  0  0  0  0  0  0
   -4.2650   -2.8660   -0.0170 O   0  0  0  0  0  0  0  0  0  0  0  0
   -4.2810    3.1760    1.2910 O   0  0  0  0  0  0  0  0  0  0  0  0
    4.1080   -2.4590    3.6970 C   0  0  2  0  0  0  0  0  0  0  0  0
   -1.7830    2.7370   -4.6570 C   0  0  2  0  0  0  0  0  0  0  0  0
    4.0850    1.1110    3.8490 C   0  0  2  0  0  0  0  0  0  0  0  0
   -2.2240   -0.6910   -5.5800 C   0  0  2  0  0  0  0  0  0  0  0  0
    3.4340   -0.9760   -3.9100 N   0  0  0  0  0  0  0  0  0  0  0  0
    4.3330    0.1440   -3.8890 C   0  0  2  0  0  0  0  0  0  0  0  0
    5.2040   -0.1130   -2.6190 C   0  0  2  0  0  0  0  0  0  0  0  0
    4.6440   -1.3190   -2.0690 N   0  0  0  0  0  0  0  0  0  0  0  0
    3.6480   -1.8630   -2.8660 C   0  0  0  0  0  0  0  0  0  0  0  0
    3.7520    1.4370   -3.6380 N   0  0  0  0  0  0  0  0  0  0  0  0
    4.2370    2.0290   -2.4810 C   0  0  0  0  0  0  0  0  0  0  0  0
    5.0350    1.0890   -1.8480 N   0  0  0  0  0  0  0  0  0  0  0  0
    3.1120   -2.9340   -2.7150 O   0  0  0  0  0  0  0  0  0  0  0  0
    4.0500    3.1670   -2.1250 O   0  0  0  0  0  0  0  0  0  0  0  0
    2.5730   -1.3060   -5.0100 C   0  0  2  0  0  0  0  0  0  0  0  0
    3.0600    2.2120   -4.6330 C   0  0  2  0  0  0  0  0  0  0  0  0
    5.8190    1.4280   -0.6920 C   0  0  1  0  0  0  0  0  0  0  0  0
    5.2590   -2.0850   -1.0220 C   0  0  1  0  0  0  0  0  0  0  0  0
   -5.4730   -1.1550   -1.9770 C   0  0  2  0  0  0  0  0  0  0  0  0
   -5.2450    2.3290   -1.2550 C   0  0  2  0  0  0  0  0  0  0  0  0
   -4.5280   -2.0700    2.7120 C   0  0  1  0  0  0  0  0  0  0  0  0
   -4.7580    1.4120    3.5050 C   0  0  1  0  0  0  0  0  0  0  0  0
    0.8230    0.5110    5.2210 N   0  0  0  0  0  0  0  0  0  0  0  0
    1.3580   -0.7650    5.6070 C   0  0  2  0  0  0  0  0  0  0  0  0
    2.8150   -0.7320    5.0450 C   0  0  2  0  0  0  0  0  0  0  0  0
    2.8710    0.5230    4.3410 N   0  0  0  0  0  0  0  0  0  0  0  0
    1.7250    1.2860    4.5100 C   0  0  0  0  0  0  0  0  0  0  0  0
    0.7840   -1.9250    4.9760 N   0  0  0  0  0  0  0  0  0  0  0  0
    1.7160   -2.6590    4.2570 C   0  0  0  0  0  0  0  0  0  0  0  0
    2.8920   -1.9250    4.2480 N   0  0  0  0  0  0  0  0  0  0  0  0
    1.5670    2.4300    4.1590 O   0  0  0  0  0  0  0  0  0  0  0  0
    1.5540   -3.7580    3.7810 O   0  0  0  0  0  0  0  0  0  0  0  0
   -0.4220    1.0470    5.6940 C   0  0  2  0  0  0  0  0  0  0  0  0
   -0.4700   -2.5100    5.3690 C   0  0  2  0  0  0  0  0  0  0  0  0
    1.8262    0.7519   -6.5368 H   0  0  0  0  0  0  0  0  0  0  0  0
   -0.7495    1.2891   -6.6537 H   0  0  0  0  0  0  0  0  0  0  0  0
   -3.9500    1.3636   -5.3837 H   0  0  0  0  0  0  0  0  0  0  0  0
   -5.7768    0.9872   -3.5345 H   0  0  0  0  0  0  0  0  0  0  0  0
    6.7798   -0.6871    0.6794 H   0  0  0  0  0  0  0  0  0  0  0  0
    6.0161   -0.6201    3.2007 H   0  0  0  0  0  0  0  0  0  0  0  0
   -2.2502   -0.7649    6.3988 H   0  0  0  0  0  0  0  0  0  0  0  0
   -4.5118   -0.7776    5.0504 H   0  0  0  0  0  0  0  0  0  0  0  0
   -6.8362    0.4316   -0.2622 H   0  0  0  0  0  0  0  0  0  0  0  0
   -6.4428   -0.2737    2.2436 H   0  0  0  0  0  0  0  0  0  0  0  0
    4.8774   -2.3529    4.4330 H   0  0  0  0  0  0  0  0  0  0  0  0
    3.8919   -3.4751    3.4407 H   0  0  0  0  0  0  0  0  0  0  0  0
   -2.1734    2.8841   -5.6423 H   0  0  0  0  0  0  0  0  0  0  0  0
   -1.5650    3.6534   -4.1495 H   0  0  0  0  0  0  0  0  0  0  0  0
    3.9317    2.1662    3.7604 H   0  0  0  0  0  0  0  0  0  0  0  0
    4.8506    0.8532    4.5506 H   0  0  0  0  0  0  0  0  0  0  0  0
   -2.2678   -1.7584   -5.6401 H   0  0  0  0  0  0  0  0  0  0  0  0
   -2.5621   -0.1925   -6.4644 H   0  0  0  0  0  0  0  0  0  0  0  0
    4.7992    0.1897   -4.8510 H   0  0  0  0  0  0  0  0  0  0  0  0
    6.2568   -0.2736   -2.7228 H   0  0  0  0  0  0  0  0  0  0  0  0
    3.1093   -1.1235   -5.9177 H   0  0  0  0  0  0  0  0  0  0  0  0
    2.2985   -2.3317   -4.8778 H   0  0  0  0  0  0  0  0  0  0  0  0
    3.0918    3.2385   -4.3327 H   0  0  0  0  0  0  0  0  0  0  0  0
    3.5614    2.0187   -5.5583 H   0  0  0  0  0  0  0  0  0  0  0  0
    5.7623    2.4877   -0.5548 H   0  0  0  0  0  0  0  0  0  0  0  0
    6.8073    1.0705   -0.8930 H   0  0  0  0  0  0  0  0  0  0  0  0
    6.3173   -2.0738   -1.1791 H   0  0  0  0  0  0  0  0  0  0  0  0
    4.8342   -3.0655   -1.0770 H   0  0  0  0  0  0  0  0  0  0  0  0
   -5.3418   -2.2059   -2.1296 H   0  0  0  0  0  0  0  0  0  0  0  0
   -6.4443   -0.8003   -2.2521 H   0  0  0  0  0  0  0  0  0  0  0  0
   -6.2670    2.2990   -1.5704 H   0  0  0  0  0  0  0  0  0  0  0  0
   -4.9151    3.3056   -0.9681 H   0  0  0  0  0  0  0  0  0  0  0  0
   -4.2973   -3.0577    2.3711 H   0  0  0  0  0  0  0  0  0  0  0  0
   -5.4068   -2.0300    3.3211 H   0  0  0  0  0  0  0  0  0  0  0  0
   -5.6259    1.1059    4.0509 H   0  0  0  0  0  0  0  0  0  0  0  0
   -4.5570    2.4615    3.5598 H   0  0  0  0  0  0  0  0  0  0  0  0
    1.1984   -0.8675    6.6601 H   0  0  0  0  0  0  0  0  0  0  0  0
    3.6448   -0.7518    5.7202 H   0  0  0  0  0  0  0  0  0  0  0  0
   -0.5188    0.7971    6.7299 H   0  0  0  0  0  0  0  0  0  0  0  0
   -0.3819    2.1009    5.5132 H   0  0  0  0  0  0  0  0  0  0  0  0
   -0.4697   -3.5332    5.0561 H   0  0  0  0  0  0  0  0  0  0  0  0
   -0.5345   -2.3855    6.4298 H   0  0  0  0  0  0  0  0  0  0  0  0
   -0.0593    1.0488    1.2091 C   0  0  0  0  0  0  0  0  0  0  0  0
   -0.0575    1.5993   -0.0672 C   0  0  0  0  0  0  0  0  0  0  0  0
   -0.0125    0.9454   -1.2928 C   0  0  0  0  0  0  0  0  0  0  0  0
    0.0420   -0.4203   -1.5450 C   0  0  0  0  0  0  0  0  0  0  0  0
    0.0648   -1.4696   -0.6337 C   0  0  0  0  0  3  0  0  0  0  0  0
    0.0389   -1.4122    0.7548 C   0  0  0  0  0  0  0  0  0  0  0  0
   -0.0164   -0.2914    1.5749 C   0  0  0  0  0  0  0  0  0  0  0  0
   -0.0994    1.7585    2.0272 H   0  0  0  0  0  0  0  0  0  0  0  0
   -0.0965    2.6814   -0.1126 H   0  0  0  0  0  0  0  0  0  0  0  0
   -0.0209    1.5851   -2.1677 H   0  0  0  0  0  0  0  0  0  0  0  0
    0.0704   -0.7048   -2.5904 H   0  0  0  0  0  0  0  0  0  0  0  0
    0.1087   -2.4640   -1.0625 H   0  0  0  0  0  0  0  0  0  0  0  0
    0.0651   -2.3678    1.2655 H   0  0  0  0  0  0  0  0  0  0  0  0
   -0.0275   -0.4886    2.6405 H   0  0  0  0  0  0  0  0  0  0  0  0
  1  5  1  0
  1 65  1  0
  2  1  1  0
  2  6  1  0
  2  3  1  0
  2 85  1  6
  3  4  1  0
  3  8  1  0
  3 86  1  6
  4  5  1  0
  5  9  2  0
  6 66  1  0
  6  7  1  0
  7 10  2  0
  8 52  1  0
  8  7  1  0
 11 15  1  0
 12 11  1  0
 12 16  1  0
 12 13  1  0
 12 87  1  6
 13 14  1  0
 13 18  1  0
 13 88  1  6
 14 69  1  0
 15 19  2  0
 15 14  1  0
 16 17  1  0
 17 18  1  0
 17 20  2  0
 18 70  1  0
 21 25  1  0
 22 21  1  0
 22 23  1  0
 22 89  1  1
 23 24  1  0
 23 28  1  0
 23 90  1  1
 24 51  1  0
 25 24  1  0
 26 22  1  0
 26 27  1  0
 27 28  1  0
 28 53  1  0
 29 25  2  0
 30 27  2  0
 31 84  1  0
 32 31  1  0
 32 33  1  0
 32 91  1  1
 33 34  1  0
 33 92  1  1
 34 35  1  0
 35 31  1  0
 36 32  1  0
 36 83  1  0
 37 36  1  0
 38 37  1  0
 38 33  1  0
 39 35  2  0
 40 37  2  0
 41 45  1  0
 42 41  1  0
 42 43  1  0
 42 93  1  1
 43 44  1  0
 43 48  1  0
 43 94  1  1
 44 71  1  0
 45 44  1  0
 46 42  1  0
 46 47  1  0
 47 50  2  0
 47 48  1  0
 48 72  1  0
 49 45  2  0
 51 80  1  0
 51 95  1  1
 51 96  1  0
 52 16  1  0
 52 97  1  6
 52 98  1  0
 53 76  1  0
 53 99  1  6
 53100  1  0
 54  4  1  0
 54 11  1  0
 54101  1  6
 54102  1  0
 55 59  1  0
 56 55  1  0
 56 60  1  0
 56 57  1  0
 56103  1  6
 57 58  1  0
 57 62  1  0
 57104  1  6
 58 68  1  0
 59 63  2  0
 59 58  1  0
 60 61  1  0
 61 64  2  0
 61 62  1  0
 62 67  1  0
 65 55  1  0
 65105  1  6
 65106  1  0
 66 60  1  0
 66107  1  1
 66108  1  0
 67 26  1  0
 67109  1  1
 67110  1  0
 68 21  1  0
 68111  1  6
 68112  1  0
 69 41  1  0
 69113  1  1
 69114  1  0
 70 46  1  0
 70115  1  6
 70116  1  0
 71 34  1  0
 71117  1  6
 71118  1  0
 72 38  1  0
 72119  1  1
 72120  1  0
 73 74  1  0
 73 83  1  0
 74 78  1  0
 74 75  1  0
 74121  1  1
 75 80  1  0
 75122  1  1
 76 77  1  0
 76 75  1  0
 77 73  1  0
 78 84  1  0
 79 78  1  0
 80 79  1  0
 81 77  2  0
 82 79  2  0
 83123  1  1
 83124  1  0
 84125  1  1
 84126  1  0
127128  2  0
128129  1  0
129130  2  0
130131  1  0
131132  1  0
132133  2  0
133127  1  0
127134  1  0
128135  1  0
129136  1  0
130137  1  0
131138  1  0
132139  1  0
133140  1  0
M  CHG  1 131   1
M  END
$$$$

     RDKit          3D

140161  0  0  1  0  0  0  0  0999 V2000
    1.3410   -0.5630   -5.0620 N   0  0  0  0  0  0  0  0  0  0  0  0
    1.2350    0.7530   -5.6450 C   0  0  1  0  0  0  0  0  0  0  0  0
   -0.3060    0.9780   -5.7310 C   0  0  1  0  0  0  0  0  0  0  0  0
   -0.8470   -0.3140   -5.4200 N   0  0  0  0  0  0  0  0  0  0  0  0
    0.1230   -1.2290   -5.0420 C   0  0  0  0  0  0  0  0  0  0  0  0
    1.6850    1.8550   -4.8460 N   0  0  0  0  0  0  0  0  0  0  0  0
    0.6440    2.6120   -4.3330 C   0  0  0  0  0  0  0  0  0  0  0  0
   -0.5370    2.0290   -4.7700 N   0  0  0  0  0  0  0  0  0  0  0  0
   -0.0530   -2.4000   -4.8020 O   0  0  0  0  0  0  0  0  0  0  0  0
    0.7490    3.6240   -3.6810 O   0  0  0  0  0  0  0  0  0  0  0  0
   -3.1110   -0.2710   -4.5300 N   0  0  0  0  0  0  0  0  0  0  0  0
   -3.6590    1.0500   -4.4030 C   0  0  1  0  0  0  0  0  0  0  0  0
   -4.7400    0.8890   -3.2890 C   0  0  1  0  0  0  0  0  0  0  0  0
   -4.5400   -0.4620   -2.8270 N   0  0  0  0  0  0  0  0  0  0  0  0
   -3.6610   -1.1740   -3.6330 C   0  0  0  0  0  0  0  0  0  0  0  0
   -2.7860    2.0670   -3.8730 N   0  0  0  0  0  0  0  0  0  0  0  0
   -3.2890    2.6520   -2.7200 C   0  0  0  0  0  0  0  0  0  0  0  0
   -4.4250    1.9420   -2.3680 N   0  0  0  0  0  0  0  0  0  0  0  0
   -3.4600   -2.3640   -3.6020 O   0  0  0  0  0  0  0  0  0  0  0  0
   -2.8550    3.6320   -2.1630 O   0  0  0  0  0  0  0  0  0  0  0  0
    4.9990   -1.6050    0.3100 N   0  0  0  0  0  0  0  0  0  0  0  0
    5.7500   -0.5370    0.9280 C   0  0  2  0  0  0  0  0  0  0  0  0
    5.2890   -0.6010    2.4160 C   0  0  2  0  0  0  0  0  0  0  0  0
    4.5660   -1.8370    2.4860 N   0  0  0  0  0  0  0  0  0  0  0  0
    4.4000   -2.4360    1.2470 C   0  0  0  0  0  0  0  0  0  0  0  0
    5.4160    0.8010    0.5360 N   0  0  0  0  0  0  0  0  0  0  0  0
    4.6970    1.4840    1.5040 C   0  0  0  0  0  0  0  0  0  0  0  0
    4.5220    0.6130    2.5710 N   0  0  0  0  0  0  0  0  0  0  0  0
    3.8850   -3.5070    1.0340 O   0  0  0  0  0  0  0  0  0  0  0  0
    4.3440    2.6380    1.4520 O   0  0  0  0  0  0  0  0  0  0  0  0
   -1.6400   -1.8800    4.8240 N   0  0  0  0  0  0  0  0  0  0  0  0
   -2.2420   -0.6820    5.3320 C   0  0  2  0  0  0  0  0  0  0  0  0
   -3.5860   -0.5950    4.5460 C   0  0  2  0  0  0  0  0  0  0  0  0
   -3.4410   -1.6150    3.5360 N   0  0  0  0  0  0  0  0  0  0  0  0
   -2.3460   -2.4350    3.7680 C   0  0  0  0  0  0  0  0  0  0  0  0
   -1.5920    0.5650    5.0070 N   0  0  0  0  0  0  0  0  0  0  0  0
   -2.4520    1.4580    4.3800 C   0  0  0  0  0  0  0  0  0  0  0  0
   -3.6170    0.7650    4.0920 N   0  0  0  0  0  0  0  0  0  0  0  0
   -2.0890   -3.4700    3.2020 O   0  0  0  0  0  0  0  0  0  0  0  0
   -2.2490    2.6310    4.1800 O   0  0  0  0  0  0  0  0  0  0  0  0
   -5.3360   -0.8900   -0.5730 N   0  0  0  0  0  0  0  0  0  0  0  0
   -5.8430    0.2690    0.1010 C   0  0  1  0  0  0  0  0  0  0  0  0
   -5.6090   -0.0600    1.6080 C   0  0  1  0  0  0  0  0  0  0  0  0
   -4.7930   -1.2490    1.5610 N   0  0  0  0  0  0  0  0  0  0  0  0
   -4.7210   -1.7890    0.2840 C   0  0  0  0  0  0  0  0  0  0  0  0
   -5.1160    1.5030   -0.0830 N   0  0  0  0  0  0  0  0  0  0  0  0
   -4.7190    2.0630    1.1250 C   0  0  0  0  0  0  0  0  0  0  0  0
   -4.9900    1.1310    2.1140 N   0  0  0  0  0  0  0  0  0  0  0  0
   -4.2650   -2.8660   -0.0170 O   0  0  0  0  0  0  0  0  0  0  0  0
   -4.2810    3.1760    1.2910 O   0  0  0  0  0  0  0  0  0  0  0  0
    4.1080   -2.4590    3.6970 C   0  0  2  0  0  0  0  0  0  0  0  0
   -1.7830    2.7370   -4.6570 C   0  0  2  0  0  0  0  0  0  0  0  0
    4.0850    1.1110    3.8490 C   0  0  2  0  0  0  0  0  0  0  0  0
   -2.2240   -0.6910   -5.5800 C   0  0  2  0  0  0  0  0  0  0  0  0
    3.4340   -0.9760   -3.9100 N   0  0  0  0  0  0  0  0  0  0  0  0
    4.3330    0.1440   -3.8890 C   0  0  2  0  0  0  0  0  0  0  0  0
    5.2040   -0.1130   -2.6190 C   0  0  2  0  0  0  0  0  0  0  0  0
    4.6440   -1.3190   -2.0690 N   0  0  0  0  0  0  0  0  0  0  0  0
    3.6480   -1.8630   -2.8660 C   0  0  0  0  0  0  0  0  0  0  0  0
    3.7520    1.4370   -3.6380 N   0  0  0  0  0  0  0  0  0  0  0  0
    4.2370    2.0290   -2.4810 C   0  0  0  0  0  0  0  0  0  0  0  0
    5.0350    1.0890   -1.8480 N   0  0  0  0  0  0  0  0  0  0  0  0
    3.1120   -2.9340   -2.7150 O   0  0  0  0  0  0  0  0  0  0  0  0
    4.0500    3.1670   -2.1250 O   0  0  0  0  0  0  0  0  0  0  0  0
    2.5730   -1.3060   -5.0100 C   0  0  2  0  0  0  0  0  0  0  0  0
    3.0600    2.2120   -4.6330 C   0  0  2  0  0  0  0  0  0  0  0  0
    5.8190    1.4280   -0.6920 C   0  0  1  0  0  0  0  0  0  0  0  0
    5.2590   -2.0850   -1.0220 C   0  0  1  0  0  0  0  0  0  0  0  0
   -5.4730   -1.1550   -1.9770 C   0  0  2  0  0  0  0  0  0  0  0  0
   -5.2450    2.3290   -1.2550 C   0  0  2  0  0  0  0  0  0  0  0  0
   -4.5280   -2.0700    2.7120 C   0  0  1  0  0  0  0  0  0  0  0  0
   -4.7580    1.4120    3.5050 C   0  0  1  0  0  0  0  0  0  0  0  0
    0.8230    0.5110    5.2210 N   0  0  0  0  0  0  0  0  0  0  0  0
    1.3580   -0.7650    5.6070 C   0  0  2  0  0  0  0  0  0  0  0  0
    2.8150   -0.7320    5.0450 C   0  0  2  0  0  0  0  0  0  0  0  0
    2.8710    0.5230    4.3410 N   0  0  0  0  0  0  0  0  0  0  0  0
    1.7250    1.2860    4.5100 C   0  0  0  0  0  0  0  0  0  0  0  0
    0.7840   -1.9250    4.9760 N   0  0  0  0  0  0  0  0  0  0  0  0
    1.7160   -2.6590    4.2570 C   0  0  0  0  0  0  0  0  0  0  0  0
    2.8920   -1.9250    4.2480 N   0  0  0  0  0  0  0  0  0  0  0  0
    1.5670    2.4300    4.1590 O   0  0  0  0  0  0  0  0  0  0  0  0
    1.5540   -3.7580    3.7810 O   0  0  0  0  0  0  0  0  0  0  0  0
   -0.4220    1.0470    5.6940 C   0  0  2  0  0  0  0  0  0  0  0  0
   -0.4700   -2.5100    5.3690 C   0  0  2  0  0  0  0  0  0  0  0  0
    1.8262    0.7519   -6.5368 H   0  0  0  0  0  0  0  0  0  0  0  0
   -0.7495    1.2891   -6.6537 H   0  0  0  0  0  0  0  0  0  0  0  0
   -3.9500    1.3636   -5.3837 H   0  0  0  0  0  0  0  0  0  0  0  0
   -5.7768    0.9872   -3.5345 H   0  0  0  0  0  0  0  0  0  0  0  0
    6.7798   -0.6871    0.6794 H   0  0  0  0  0  0  0  0  0  0  0  0
    6.0161   -0.6201    3.2007 H   0  0  0  0  0  0  0  0  0  0  0  0
   -2.2502   -0.7649    6.3988 H   0  0  0  0  0  0  0  0  0  0  0  0
   -4.5118   -0.7776    5.0504 H   0  0  0  0  0  0  0  0  0  0  0  0
   -6.8362    0.4316   -0.2622 H   0  0  0  0  0  0  0  0  0  0  0  0
   -6.4428   -0.2737    2.2436 H   0  0  0  0  0  0  0  0  0  0  0  0
    4.8774   -2.3529    4.4330 H   0  0  0  0  0  0  0  0  0  0  0  0
    3.8919   -3.4751    3.4407 H   0  0  0  0  0  0  0  0  0  0  0  0
   -2.1734    2.8841   -5.6423 H   0  0  0  0  0  0  0  0  0  0  0  0
   -1.5650    3.6534   -4.1495 H   0  0  0  0  0  0  0  0  0  0  0  0
    3.9317    2.1662    3.7604 H   0  0  0  0  0  0  0  0  0  0  0  0
    4.8506    0.8532    4.5506 H   0  0  0  0  0  0  0  0  0  0  0  0
   -2.2678   -1.7584   -5.6401 H   0  0  0  0  0  0  0  0  0  0  0  0
   -2.5621   -0.1925   -6.4644 H   0  0  0  0  0  0  0  0  0  0  0  0
    4.7992    0.1897   -4.8510 H   0  0  0  0  0  0  0  0  0  0  0  0
    6.2568   -0.2736   -2.7228 H   0  0  0  0  0  0  0  0  0  0  0  0
    3.1093   -1.1235   -5.9177 H   0  0  0  0  0  0  0  0  0  0  0  0
    2.2985   -2.3317   -4.8778 H   0  0  0  0  0  0  0  0  0  0  0  0
    3.0918    3.2385   -4.3327 H   0  0  0  0  0  0  0  0  0  0  0  0
    3.5614    2.0187   -5.5583 H   0  0  0  0  0  0  0  0  0  0  0  0
    5.7623    2.4877   -0.5548 H   0  0  0  0  0  0  0  0  0  0  0  0
    6.8073    1.0705   -0.8930 H   0  0  0  0  0  0  0  0  0  0  0  0
    6.3173   -2.0738   -1.1791 H   0  0  0  0  0  0  0  0  0  0  0  0
    4.8342   -3.0655   -1.0770 H   0  0  0  0  0  0  0  0  0  0  0  0
   -5.3418   -2.2059   -2.1296 H   0  0  0  0  0  0  0  0  0  0  0  0
   -6.4443   -0.8003   -2.2521 H   0  0  0  0  0  0  0  0  0  0  0  0
   -6.2670    2.2990   -1.5704 H   0  0  0  0  0  0  0  0  0  0  0  0
   -4.9151    3.3056   -0.9681 H   0  0  0  0  0  0  0  0  0  0  0  0
   -4.2973   -3.0577    2.3711 H   0  0  0  0  0  0  0  0  0  0  0  0
   -5.4068   -2.0300    3.3211 H   0  0  0  0  0  0  0  0  0  0  0  0
   -5.6259    1.1059    4.0509 H   0  0  0  0  0  0  0  0  0  0  0  0
   -4.5570    2.4615    3.5598 H   0  0  0  0  0  0  0  0  0  0  0  0
    1.1984   -0.8675    6.6601 H   0  0  0  0  0  0  0  0  0  0  0  0
    3.6448   -0.7518    5.7202 H   0  0  0  0  0  0  0  0  0  0  0  0
   -0.5188    0.7971    6.7299 H   0  0  0  0  0  0  0  0  0  0  0  0
   -0.3819    2.1009    5.5132 H   0  0  0  0  0  0  0  0  0  0  0  0
   -0.4697   -3.5332    5.0561 H   0  0  0  0  0  0  0  0  0  0  0  0
   -0.5345   -2.3855    6.4298 H   0  0  0  0  0  0  0  0  0  0  0  0
   -0.0593    2.3821    1.2091 C   0  0  0  0  0  0  0  0  0  0  0  0
   -0.0575    2.9326   -0.0672 C   0  0  0  0  0  0  0  0  0  0  0  0
   -0.0125    2.2788   -1.2928 C   0  0  0  0  0  0  0  0  0  0  0  0
    0.0420    0.9130   -1.5450 C   0  0  0  0  0  0  0  0  0  0  0  0
    0.0648   -0.1362   -0.6337 C   0  0  0  0  0  3  0  0  0  0  0  0
    0.0389   -0.0789    0.7548 C   0  0  0  0  0  0  0  0  0  0  0  0
   -0.0164    1.0419    1.5749 C   0  0  0  0  0  0  0  0  0  0  0  0
   -0.0994    3.0918    2.0272 H   0  0  0  0  0  0  0  0  0  0  0  0
   -0.0965    4.0147   -0.1126 H   0  0  0  0  0  0  0  0  0  0  0  0
   -0.0209    2.9185   -2.1677 H   0  0  0  0  0  0  0  0  0  0  0  0
    0.0704    0.6286   -2.5904 H   0  0  0  0  0  0  0  0  0  0  0  0
    0.1087   -1.1306   -1.0625 H   0  0  0  0  0  0  0  0  0  0  0  0
    0.0651   -1.0344    1.2655 H   0  0  0  0  0  0  0  0  0  0  0  0
   -0.0275    0.8448    2.6405 H   0  0  0  0  0  0  0  0  0  0  0  0
  1  5  1  0
  1 65  1  0
  2  1  1  0
  2  6  1  0
  2  3  1  0
  2 85  1  6
  3  4  1  0
  3  8  1  0
  3 86  1  6
  4  5  1  0
  5  9  2  0
  6 66  1  0
  6  7  1  0
  7 10  2  0
  8 52  1  0
  8  7  1  0
 11 15  1  0
 12 11  1  0
 12 16  1  0
 12 13  1  0
 12 87  1  6
 13 14  1  0
 13 18  1  0
 13 88  1  6
 14 69  1  0
 15 19  2  0
 15 14  1  0
 16 17  1  0
 17 18  1  0
 17 20  2  0
 18 70  1  0
 21 25  1  0
 22 21  1  0
 22 23  1  0
 22 89  1  1
 23 24  1  0
 23 28  1  0
 23 90  1  1
 24 51  1  0
 25 24  1  0
 26 22  1  0
 26 27  1  0
 27 28  1  0
 28 53  1  0
 29 25  2  0
 30 27  2  0
 31 84  1  0
 32 31  1  0
 32 33  1  0
 32 91  1  1
 33 34  1  0
 33 92  1  1
 34 35  1  0
 35 31  1  0
 36 32  1  0
 36 83  1  0
 37 36  1  0
 38 37  1  0
 38 33  1  0
 39 35  2  0
 40 37  2  0
 41 45  1  0
 42 41  1  0
 42 43  1  0
 42 93  1  1
 43 44  1  0
 43 48  1  0
 43 94  1  1
 44 71  1  0
 45 44  1  0
 46 42  1  0
 46 47  1  0
 47 50  2  0
 47 48  1  0
 48 72  1  0
 49 45  2  0
 51 80  1  0
 51 95  1  1
 51 96  1  0
 52 16  1  0
 52 97  1  6
 52 98  1  0
 53 76  1  0
 53 99  1  6
 53100  1  0
 54  4  1  0
 54 11  1  0
 54101  1  6
 54102  1  0
 55 59  1  0
 56 55  1  0
 56 60  1  0
 56 57  1  0
 56103  1  6
 57 58  1  0
 57 62  1  0
 57104  1  6
 58 68  1  0
 59 63  2  0
 59 58  1  0
 60 61  1  0
 61 64  2  0
 61 62  1  0
 62 67  1  0
 65 55  1  0
 65105  1  6
 65106  1  0
 66 60  1  0
 66107  1  1
 66108  1  0
 67 26  1  0
 67109  1  1
 67110  1  0
 68 21  1  0
 68111  1  6
 68112  1  0
 69 41  1  0
 69113  1  1
 69114  1  0
 70 46  1  0
 70115  1  6
 70116  1  0
 71 34  1  0
 71117  1  6
 71118  1  0
 72 38  1  0
 72119  1  1
 72120  1  0
 73 74  1  0
 73 83  1  0
 74 78  1  0
 74 75  1  0
 74121  1  1
 75 80  1  0
 75122  1  1
 76 77  1  0
 76 75  1  0
 77 73  1  0
 78 84  1  0
 79 78  1  0
 80 79  1  0
 81 77  2  0
 82 79  2  0
 83123  1  1
 83124  1  0
 84125  1  1
 84126  1  0
127128  2  0
128129  1  0
129130  2  0
130131  1  0
131132  1  0
132133  2  0
133127  1  0
127134  1  0
128135  1  0
129136  1  0
130137  1  0
131138  1  0
132139  1  0
133140  1  0
M  CHG  1 131   1
M  END
$$$$

     RDKit          3D

140161  0  0  1  0  0  0  0  0999 V2000
    1.3410   -0.5630   -5.0620 N   0  0  0  0  0  0  0  0  0  0  0  0
    1.2350    0.7530   -5.6450 C   0  0  1  0  0  0  0  0  0  0  0  0
   -0.3060    0.9780   -5.7310 C   0  0  1  0  0  0  0  0  0  0  0  0
   -0.8470   -0.3140   -5.4200 N   0  0  0  0  0  0  0  0  0  0  0  0
    0.1230   -1.2290   -5.0420 C   0  0  0  0  0  0  0  0  0  0  0  0
    1.6850    1.8550   -4.8460 N   0  0  0  0  0  0  0  0  0  0  0  0
    0.6440    2.6120   -4.3330 C   0  0  0  0  0  0  0  0  0  0  0  0
   -0.5370    2.0290   -4.7700 N   0  0  0  0  0  0  0  0  0  0  0  0
   -0.0530   -2.4000   -4.8020 O   0  0  0  0  0  0  0  0  0  0  0  0
    0.7490    3.6240   -3.6810 O   0  0  0  0  0  0  0  0  0  0  0  0
   -3.1110   -0.2710   -4.5300 N   0  0  0  0  0  0  0  0  0  0  0  0
   -3.6590    1.0500   -4.4030 C   0  0  1  0  0  0  0  0  0  0  0  0
   -4.7400    0.8890   -3.2890 C   0  0  1  0  0  0  0  0  0  0  0  0
   -4.5400   -0.4620   -2.8270 N   0  0  0  0  0  0  0  0  0  0  0  0
   -3.6610   -1.1740   -3.6330 C   0  0  0  0  0  0  0  0  0  0  0  0
   -2.7860    2.0670   -3.8730 N   0  0  0  0  0  0  0  0  0  0  0  0
   -3.2890    2.6520   -2.7200 C   0  0  0  0  0  0  0  0  0  0  0  0
   -4.4250    1.9420   -2.3680 N   0  0  0  0  0  0  0  0  0  0  0  0
   -3.4600   -2.3640   -3.6020 O   0  0  0  0  0  0  0  0  0  0  0  0
   -2.8550    3.6320   -2.1630 O   0  0  0  0  0  0  0  0  0  0  0  0
    4.9990   -1.6050    0.3100 N   0  0  0  0  0  0  0  0  0  0  0  0
    5.7500   -0.5370    0.9280 C   0  0  2  0  0  0  0  0  0  0  0  0
    5.2890   -0.6010    2.4160 C   0  0  2  0  0  0  0  0  0  0  0  0
    4.5660   -1.8370    2.4860 N   0  0  0  0  0  0  0  0  0  0  0  0
    4.4000   -2.4360    1.2470 C   0  0  0  0  0  0  0  0  0  0  0  0
    5.4160    0.8010    0.5360 N   0  0  0  0  0  0  0  0  0  0  0  0
    4.6970    1.4840    1.5040 C   0  0  0  0  0  0  0  0  0  0  0  0
    4.5220    0.6130    2.5710 N   0  0  0  0  0  0  0  0  0  0  0  0
    3.8850   -3.5070    1.0340 O   0  0  0  0  0  0  0  0  0  0  0  0
    4.3440    2.6380    1.4520 O   0  0  0  0  0  0  0  0  0  0  0  0
   -1.6400   -1.8800    4.8240 N   0  0  0  0  0  0  0  0  0  0  0  0
   -2.2420   -0.6820    5.3320 C   0  0  2  0  0  0  0  0  0  0  0  0
   -3.5860   -0.5950    4.5460 C   0  0  2  0  0  0  0  0  0  0  0  0
   -3.4410   -1.6150    3.5360 N   0  0  0  0  0  0  0  0  0  0  0  0
   -2.3460   -2.4350    3.7680 C   0  0  0  0  0  0  0  0  0  0  0  0
   -1.5920    0.5650    5.0070 N   0  0  0  0  0  0  0  0  0  0  0  0
   -2.4520    1.4580    4.3800 C   0  0  0  0  0  0  0  0  0  0  0  0
   -3.6170    0.7650    4.0920 N   0  0  0  0  0  0  0  0  0  0  0  0
   -2.0890   -3.4700    3.2020 O   0  0  0  0  0  0  0  0  0  0  0  0
   -2.2490    2.6310    4.1800 O   0  0  0  0  0  0  0  0  0  0  0  0
   -5.3360   -0.8900   -0.5730 N   0  0  0  0  0  0  0  0  0  0  0  0
   -5.8430    0.2690    0.1010 C   0  0  1  0  0  0  0  0  0  0  0  0
   -5.6090   -0.0600    1.6080 C   0  0  1  0  0  0  0  0  0  0  0  0
   -4.7930   -1.2490    1.5610 N   0  0  0  0  0  0  0  0  0  0  0  0
   -4.7210   -1.7890    0.2840 C   0  0  0  0  0  0  0  0  0  0  0  0
   -5.1160    1.5030   -0.0830 N   0  0  0  0  0  0  0  0  0  0  0  0
   -4.7190    2.0630    1.1250 C   0  0  0  0  0  0  0  0  0  0  0  0
   -4.9900    1.1310    2.1140 N   0  0  0  0  0  0  0  0  0  0  0  0
   -4.2650   -2.8660   -0.0170 O   0  0  0  0  0  0  0  0  0  0  0  0
   -4.2810    3.1760    1.2910 O   0  0  0  0  0  0  0  0  0  0  0  0
    4.1080   -2.4590    3.6970 C   0  0  2  0  0  0  0  0  0  0  0  0
   -1.7830    2.7370   -4.6570 C   0  0  2  0  0  0  0  0  0  0  0  0
    4.0850    1.1110    3.8490 C   0  0  2  0  0  0  0  0  0  0  0  0
   -2.2240   -0.6910   -5.5800 C   0  0  2  0  0  0  0  0  0  0  0  0
    3.4340   -0.9760   -3.9100 N   0  0  0  0  0  0  0  0  0  0  0  0
    4.3330    0.1440   -3.8890 C   0  0  2  0  0  0  0  0  0  0  0  0
    5.2040   -0.1130   -2.6190 C   0  0  2  0  0  0  0  0  0  0  0  0
    4.6440   -1.3190   -2.0690 N   0  0  0  0  0  0  0  0  0  0  0  0
    3.6480   -1.8630   -2.8660 C   0  0  0  0  0  0  0  0  0  0  0  0
    3.7520    1.4370   -3.6380 N   0  0  0  0  0  0  0  0  0  0  0  0
    4.2370    2.0290   -2.4810 C   0  0  0  0  0  0  0  0  0  0  0  0
    5.0350    1.0890   -1.8480 N   0  0  0  0  0  0  0  0  0  0  0  0
    3.1120   -2.9340   -2.7150 O   0  0  0  0  0  0  0  0  0  0  0  0
    4.0500    3.1670   -2.1250 O   0  0  0  0  0  0  0  0  0  0  0  0
    2.5730   -1.3060   -5.0100 C   0  0  2  0  0  0  0  0  0  0  0  0
    3.0600    2.2120   -4.6330 C   0  0  2  0  0  0  0  0  0  0  0  0
    5.8190    1.4280   -0.6920 C   0  0  1  0  0  0  0  0  0  0  0  0
    5.2590   -2.0850   -1.0220 C   0  0  1  0  0  0  0  0  0  0  0  0
   -5.4730   -1.1550   -1.9770 C   0  0  2  0  0  0  0  0  0  0  0  0
   -5.2450    2.3290   -1.2550 C   0  0  2  0  0  0  0  0  0  0  0  0
   -4.5280   -2.0700    2.7120 C   0  0  1  0  0  0  0  0  0  0  0  0
   -4.7580    1.4120    3.5050 C   0  0  1  0  0  0  0  0  0  0  0  0
    0.8230    0.5110    5.2210 N   0  0  0  0  0  0  0  0  0  0  0  0
    1.3580   -0.7650    5.6070 C   0  0  2  0  0  0  0  0  0  0  0  0
    2.8150   -0.7320    5.0450 C   0  0  2  0  0  0  0  0  0  0  0  0
    2.8710    0.5230    4.3410 N   0  0  0  0  0  0  0  0  0  0  0  0
    1.7250    1.2860    4.5100 C   0  0  0  0  0  0  0  0  0  0  0  0
    0.7840   -1.9250    4.9760 N   0  0  0  0  0  0  0  0  0  0  0  0
    1.7160   -2.6590    4.2570 C   0  0  0  0  0  0  0  0  0  0  0  0
    2.8920   -1.9250    4.2480 N   0  0  0  0  0  0  0  0  0  0  0  0
    1.5670    2.4300    4.1590 O   0  0  0  0  0  0  0  0  0  0  0  0
    1.5540   -3.7580    3.7810 O   0  0  0  0  0  0  0  0  0  0  0  0
   -0.4220    1.0470    5.6940 C   0  0  2  0  0  0  0  0  0  0  0  0
   -0.4700   -2.5100    5.3690 C   0  0  2  0  0  0  0  0  0  0  0  0
    1.8262    0.7519   -6.5368 H   0  0  0  0  0  0  0  0  0  0  0  0
   -0.7495    1.2891   -6.6537 H   0  0  0  0  0  0  0  0  0  0  0  0
   -3.9500    1.3636   -5.3837 H   0  0  0  0  0  0  0  0  0  0  0  0
   -5.7768    0.9872   -3.5345 H   0  0  0  0  0  0  0  0  0  0  0  0
    6.7798   -0.6871    0.6794 H   0  0  0  0  0  0  0  0  0  0  0  0
    6.0161   -0.6201    3.2007 H   0  0  0  0  0  0  0  0  0  0  0  0
   -2.2502   -0.7649    6.3988 H   0  0  0  0  0  0  0  0  0  0  0  0
   -4.5118   -0.7776    5.0504 H   0  0  0  0  0  0  0  0  0  0  0  0
   -6.8362    0.4316   -0.2622 H   0  0  0  0  0  0  0  0  0  0  0  0
   -6.4428   -0.2737    2.2436 H   0  0  0  0  0  0  0  0  0  0  0  0
    4.8774   -2.3529    4.4330 H   0  0  0  0  0  0  0  0  0  0  0  0
    3.8919   -3.4751    3.4407 H   0  0  0  0  0  0  0  0  0  0  0  0
   -2.1734    2.8841   -5.6423 H   0  0  0  0  0  0  0  0  0  0  0  0
   -1.5650    3.6534   -4.1495 H   0  0  0  0  0  0  0  0  0  0  0  0
    3.9317    2.1662    3.7604 H   0  0  0  0  0  0  0  0  0  0  0  0
    4.8506    0.8532    4.5506 H   0  0  0  0  0  0  0  0  0  0  0  0
   -2.2678   -1.7584   -5.6401 H   0  0  0  0  0  0  0  0  0  0  0  0
   -2.5621   -0.1925   -6.4644 H   0  0  0  0  0  0  0  0  0  0  0  0
    4.7992    0.1897   -4.8510 H   0  0  0  0  0  0  0  0  0  0  0  0
    6.2568   -0.2736   -2.7228 H   0  0  0  0  0  0  0  0  0  0  0  0
    3.1093   -1.1235   -5.9177 H   0  0  0  0  0  0  0  0  0  0  0  0
    2.2985   -2.3317   -4.8778 H   0  0  0  0  0  0  0  0  0  0  0  0
    3.0918    3.2385   -4.3327 H   0  0  0  0  0  0  0  0  0  0  0  0
    3.5614    2.0187   -5.5583 H   0  0  0  0  0  0  0  0  0  0  0  0
    5.7623    2.4877   -0.5548 H   0  0  0  0  0  0  0  0  0  0  0  0
    6.8073    1.0705   -0.8930 H   0  0  0  0  0  0  0  0  0  0  0  0
    6.3173   -2.0738   -1.1791 H   0  0  0  0  0  0  0  0  0  0  0  0
    4.8342   -3.0655   -1.0770 H   0  0  0  0  0  0  0  0  0  0  0  0
   -5.3418   -2.2059   -2.1296 H   0  0  0  0  0  0  0  0  0  0  0  0
   -6.4443   -0.8003   -2.2521 H   0  0  0  0  0  0  0  0  0  0  0  0
   -6.2670    2.2990   -1.5704 H   0  0  0  0  0  0  0  0  0  0  0  0
   -4.9151    3.3056   -0.9681 H   0  0  0  0  0  0  0  0  0  0  0  0
   -4.2973   -3.0577    2.3711 H   0  0  0  0  0  0  0  0  0  0  0  0
   -5.4068   -2.0300    3.3211 H   0  0  0  0  0  0  0  0  0  0  0  0
   -5.6259    1.1059    4.0509 H   0  0  0  0  0  0  0  0  0  0  0  0
   -4.5570    2.4615    3.5598 H   0  0  0  0  0  0  0  0  0  0  0  0
    1.1984   -0.8675    6.6601 H   0  0  0  0  0  0  0  0  0  0  0  0
    3.6448   -0.7518    5.7202 H   0  0  0  0  0  0  0  0  0  0  0  0
   -0.5188    0.7971    6.7299 H   0  0  0  0  0  0  0  0  0  0  0  0
   -0.3819    2.1009    5.5132 H   0  0  0  0  0  0  0  0  0  0  0  0
   -0.4697   -3.5332    5.0561 H   0  0  0  0  0  0  0  0  0  0  0  0
   -0.5345   -2.3855    6.4298 H   0  0  0  0  0  0  0  0  0  0  0  0
   -0.0593    3.7155    1.2091 C   0  0  0  0  0  0  0  0  0  0  0  0
   -0.0575    4.2659   -0.0672 C   0  0  0  0  0  0  0  0  0  0  0  0
   -0.0125    3.6121   -1.2928 C   0  0  0  0  0  0  0  0  0  0  0  0
    0.0420    2.2463   -1.5450 C   0  0  0  0  0  0  0  0  0  0  0  0
    0.0648    1.1971   -0.6337 C   0  0  0  0  0  3  0  0  0  0  0  0
    0.0389    1.2545    0.7548 C   0  0  0  0  0  0  0  0  0  0  0  0
   -0.0164    2.3753    1.5749 C   0  0  0  0  0  0  0  0  0  0  0  0
   -0.0994    4.4252    2.0272 H   0  0  0  0  0  0  0  0  0  0  0  0
   -0.0965    5.3481   -0.1126 H   0  0  0  0  0  0  0  0  0  0  0  0
   -0.0209    4.2518   -2.1677 H   0  0  0  0  0  0  0  0  0  0  0  0
    0.0704    1.9619   -2.5904 H   0  0  0  0  0  0  0  0  0  0  0  0
    0.1087    0.2027   -1.0625 H   0  0  0  0  0  0  0  0  0  0  0  0
    0.0651    0.2989    1.2655 H   0  0  0  0  0  0  0  0  0  0  0  0
   -0.0275    2.1781    2.6405 H   0  0  0  0  0  0  0  0  0  0  0  0
  1  5  1  0
  1 65  1  0
  2  1  1  0
  2  6  1  0
  2  3  1  0
  2 85  1  6
  3  4  1  0
  3  8  1  0
  3 86  1  6
  4  5  1  0
  5  9  2  0
  6 66  1  0
  6  7  1  0
  7 10  2  0
  8 52  1  0
  8  7  1  0
 11 15  1  0
 12 11  1  0
 12 16  1  0
 12 13  1  0
 12 87  1  6
 13 14  1  0
 13 18  1  0
 13 88  1  6
 14 69  1  0
 15 19  2  0
 15 14  1  0
 16 17  1  0
 17 18  1  0
 17 20  2  0
 18 70  1  0
 21 25  1  0
 22 21  1  0
 22 23  1  0
 22 89  1  1
 23 24  1  0
 23 28  1  0
 23 90  1  1
 24 51  1  0
 25 24  1  0
 26 22  1  0
 26 27  1  0
 27 28  1  0
 28 53  1  0
 29 25  2  0
 30 27  2  0
 31 84  1  0
 32 31  1  0
 32 33  1  0
 32 91  1  1
 33 34  1  0
 33 92  1  1
 34 35  1  0
 35 31  1  0
 36 32  1  0
 36 83  1  0
 37 36  1  0
 38 37  1  0
 38 33  1  0
 39 35  2  0
 40 37  2  0
 41 45  1  0
 42 41  1  0
 42 43  1  0
 42 93  1  1
 43 44  1  0
 43 48  1  0
 43 94  1  1
 44 71  1  0
 45 44  1  0
 46 42  1  0
 46 47  1  0
 47 50  2  0
 47 48  1  0
 48 72  1  0
 49 45  2  0
 51 80  1  0
 51 95  1  1
 51 96  1  0
 52 16  1  0
 52 97  1  6
 52 98  1  0
 53 76  1  0
 53 99  1  6
 53100  1  0
 54  4  1  0
 54 11  1  0
 54101  1  6
 54102  1  0
 55 59  1  0
 56 55  1  0
 56 60  1  0
 56 57  1  0
 56103  1  6
 57 58  1  0
 57 62  1  0
 57104  1  6
 58 68  1  0
 59 63  2  0
 59 58  1  0
 60 61  1  0
 61 64  2  0
 61 62  1  0
 62 67  1  0
 65 55  1  0
 65105  1  6
 65106  1  0
 66 60  1  0
 66107  1  1
 66108  1  0
 67 26  1  0
 67109  1  1
 67110  1  0
 68 21  1  0
 68111  1  6
 68112  1  0
 69 41  1  0
 69113  1  1
 69114  1  0
 70 46  1  0
 70115  1  6
 70116  1  0
 71 34  1  0
 71117  1  6
 71118  1  0
 72 38  1  0
 72119  1  1
 72120  1  0
 73 74  1  0
 73 83  1  0
 74 78  1  0
 74 75  1  0
 74121  1  1
 75 80  1  0
 75122  1  1
 76 77  1  0
 76 75  1  0
 77 73  1  0
 78 84  1  0
 79 78  1  0
 80 79  1  0
 81 77  2  0
 82 79  2  0
 83123  1  1
 83124  1  0
 84125  1  1
 84126  1  0
127128  2  0
128129  1  0
129130  2  0
130131  1  0
131132  1  0
132133  2  0
133127  1  0
127134  1  0
128135  1  0
129136  1  0
130137  1  0
131138  1  0
132139  1  0
133140  1  0
M  CHG  1 131   1
M  END
$$$$

     RDKit          3D

140161  0  0  1  0  0  0  0  0999 V2000
    1.3410   -0.5630   -5.0620 N   0  0  0  0  0  0  0  0  0  0  0  0
    1.2350    0.7530   -5.6450 C   0  0  1  0  0  0  0  0  0  0  0  0
   -0.3060    0.9780   -5.7310 C   0  0  1  0  0  0  0  0  0  0  0  0
   -0.8470   -0.3140   -5.4200 N   0  0  0  0  0  0  0  0  0  0  0  0
    0.1230   -1.2290   -5.0420 C   0  0  0  0  0  0  0  0  0  0  0  0
    1.6850    1.8550   -4.8460 N   0  0  0  0  0  0  0  0  0  0  0  0
    0.6440    2.6120   -4.3330 C   0  0  0  0  0  0  0  0  0  0  0  0
   -0.5370    2.0290   -4.7700 N   0  0  0  0  0  0  0  0  0  0  0  0
   -0.0530   -2.4000   -4.8020 O   0  0  0  0  0  0  0  0  0  0  0  0
    0.7490    3.6240   -3.6810 O   0  0  0  0  0  0  0  0  0  0  0  0
   -3.1110   -0.2710   -4.5300 N   0  0  0  0  0  0  0  0  0  0  0  0
   -3.6590    1.0500   -4.4030 C   0  0  1  0  0  0  0  0  0  0  0  0
   -4.7400    0.8890   -3.2890 C   0  0  1  0  0  0  0  0  0  0  0  0
   -4.5400   -0.4620   -2.8270 N   0  0  0  0  0  0  0  0  0  0  0  0
   -3.6610   -1.1740   -3.6330 C   0  0  0  0  0  0  0  0  0  0  0  0
   -2.7860    2.0670   -3.8730 N   0  0  0  0  0  0  0  0  0  0  0  0
   -3.2890    2.6520   -2.7200 C   0  0  0  0  0  0  0  0  0  0  0  0
   -4.4250    1.9420   -2.3680 N   0  0  0  0  0  0  0  0  0  0  0  0
   -3.4600   -2.3640   -3.6020 O   0  0  0  0  0  0  0  0  0  0  0  0
   -2.8550    3.6320   -2.1630 O   0  0  0  0  0  0  0  0  0  0  0  0
    4.9990   -1.6050    0.3100 N   0  0  0  0  0  0  0  0  0  0  0  0
    5.7500   -0.5370    0.9280 C   0  0  2  0  0  0  0  0  0  0  0  0
    5.2890   -0.6010    2.4160 C   0  0  2  0  0  0  0  0  0  0  0  0
    4.5660   -1.8370    2.4860 N   0  0  0  0  0  0  0  0  0  0  0  0
    4.4000   -2.4360    1.2470 C   0  0  0  0  0  0  0  0  0  0  0  0
    5.4160    0.8010    0.5360 N   0  0  0  0  0  0  0  0  0  0  0  0
    4.6970    1.4840    1.5040 C   0  0  0  0  0  0  0  0  0  0  0  0
    4.5220    0.6130    2.5710 N   0  0  0  0  0  0  0  0  0  0  0  0
    3.8850   -3.5070    1.0340 O   0  0  0  0  0  0  0  0  0  0  0  0
    4.3440    2.6380    1.4520 O   0  0  0  0  0  0  0  0  0  0  0  0
   -1.6400   -1.8800    4.8240 N   0  0  0  0  0  0  0  0  0  0  0  0
   -2.2420   -0.6820    5.3320 C   0  0  2  0  0  0  0  0  0  0  0  0
   -3.5860   -0.5950    4.5460 C   0  0  2  0  0  0  0  0  0  0  0  0
   -3.4410   -1.6150    3.5360 N   0  0  0  0  0  0  0  0  0  0  0  0
   -2.3460   -2.4350    3.7680 C   0  0  0  0  0  0  0  0  0  0  0  0
   -1.5920    0.5650    5.0070 N   0  0  0  0  0  0  0  0  0  0  0  0
   -2.4520    1.4580    4.3800 C   0  0  0  0  0  0  0  0  0  0  0  0
   -3.6170    0.7650    4.0920 N   0  0  0  0  0  0  0  0  0  0  0  0
   -2.0890   -3.4700    3.2020 O   0  0  0  0  0  0  0  0  0  0  0  0
   -2.2490    2.6310    4.1800 O   0  0  0  0  0  0  0  0  0  0  0  0
   -5.3360   -0.8900   -0.5730 N   0  0  0  0  0  0  0  0  0  0  0  0
   -5.8430    0.2690    0.1010 C   0  0  1  0  0  0  0  0  0  0  0  0
   -5.6090   -0.0600    1.6080 C   0  0  1  0  0  0  0  0  0  0  0  0
   -4.7930   -1.2490    1.5610 N   0  0  0  0  0  0  0  0  0  0  0  0
   -4.7210   -1.7890    0.2840 C   0  0  0  0  0  0  0  0  0  0  0  0
   -5.1160    1.5030   -0.0830 N   0  0  0  0  0  0  0  0  0  0  0  0
   -4.7190    2.0630    1.1250 C   0  0  0  0  0  0  0  0  0  0  0  0
   -4.9900    1.1310    2.1140 N   0  0  0  0  0  0  0  0  0  0  0  0
   -4.2650   -2.8660   -0.0170 O   0  0  0  0  0  0  0  0  0  0  0  0
   -4.2810    3.1760    1.2910 O   0  0  0  0  0  0  0  0  0  0  0  0
    4.1080   -2.4590    3.6970 C   0  0  2  0  0  0  0  0  0  0  0  0
   -1.7830    2.7370   -4.6570 C   0  0  2  0  0  0  0  0  0  0  0  0
    4.0850    1.1110    3.8490 C   0  0  2  0  0  0  0  0  0  0  0  0
   -2.2240   -0.6910   -5.5800 C   0  0  2  0  0  0  0  0  0  0  0  0
    3.4340   -0.9760   -3.9100 N   0  0  0  0  0  0  0  0  0  0  0  0
    4.3330    0.1440   -3.8890 C   0  0  2  0  0  0  0  0  0  0  0  0
    5.2040   -0.1130   -2.6190 C   0  0  2  0  0  0  0  0  0  0  0  0
    4.6440   -1.3190   -2.0690 N   0  0  0  0  0  0  0  0  0  0  0  0
    3.6480   -1.8630   -2.8660 C   0  0  0  0  0  0  0  0  0  0  0  0
    3.7520    1.4370   -3.6380 N   0  0  0  0  0  0  0  0  0  0  0  0
    4.2370    2.0290   -2.4810 C   0  0  0  0  0  0  0  0  0  0  0  0
    5.0350    1.0890   -1.8480 N   0  0  0  0  0  0  0  0  0  0  0  0
    3.1120   -2.9340   -2.7150 O   0  0  0  0  0  0  0  0  0  0  0  0
    4.0500    3.1670   -2.1250 O   0  0  0  0  0  0  0  0  0  0  0  0
    2.5730   -1.3060   -5.0100 C   0  0  2  0  0  0  0  0  0  0  0  0
    3.0600    2.2120   -4.6330 C   0  0  2  0  0  0  0  0  0  0  0  0
    5.8190    1.4280   -0.6920 C   0  0  1  0  0  0  0  0  0  0  0  0
    5.2590   -2.0850   -1.0220 C   0  0  1  0  0  0  0  0  0  0  0  0
   -5.4730   -1.1550   -1.9770 C   0  0  2  0  0  0  0  0  0  0  0  0
   -5.2450    2.3290   -1.2550 C   0  0  2  0  0  0  0  0  0  0  0  0
   -4.5280   -2.0700    2.7120 C   0  0  1  0  0  0  0  0  0  0  0  0
   -4.7580    1.4120    3.5050 C   0  0  1  0  0  0  0  0  0  0  0  0
    0.8230    0.5110    5.2210 N   0  0  0  0  0  0  0  0  0  0  0  0
    1.3580   -0.7650    5.6070 C   0  0  2  0  0  0  0  0  0  0  0  0
    2.8150   -0.7320    5.0450 C   0  0  2  0  0  0  0  0  0  0  0  0
    2.8710    0.5230    4.3410 N   0  0  0  0  0  0  0  0  0  0  0  0
    1.7250    1.2860    4.5100 C   0  0  0  0  0  0  0  0  0  0  0  0
    0.7840   -1.9250    4.9760 N   0  0  0  0  0  0  0  0  0  0  0  0
    1.7160   -2.6590    4.2570 C   0  0  0  0  0  0  0  0  0  0  0  0
    2.8920   -1.9250    4.2480 N   0  0  0  0  0  0  0  0  0  0  0  0
    1.5670    2.4300    4.1590 O   0  0  0  0  0  0  0  0  0  0  0  0
    1.5540   -3.7580    3.7810 O   0  0  0  0  0  0  0  0  0  0  0  0
   -0.4220    1.0470    5.6940 C   0  0  2  0  0  0  0  0  0  0  0  0
   -0.4700   -2.5100    5.3690 C   0  0  2  0  0  0  0  0  0  0  0  0
    1.8262    0.7519   -6.5368 H   0  0  0  0  0  0  0  0  0  0  0  0
   -0.7495    1.2891   -6.6537 H   0  0  0  0  0  0  0  0  0  0  0  0
   -3.9500    1.3636   -5.3837 H   0  0  0  0  0  0  0  0  0  0  0  0
   -5.7768    0.9872   -3.5345 H   0  0  0  0  0  0  0  0  0  0  0  0
    6.7798   -0.6871    0.6794 H   0  0  0  0  0  0  0  0  0  0  0  0
    6.0161   -0.6201    3.2007 H   0  0  0  0  0  0  0  0  0  0  0  0
   -2.2502   -0.7649    6.3988 H   0  0  0  0  0  0  0  0  0  0  0  0
   -4.5118   -0.7776    5.0504 H   0  0  0  0  0  0  0  0  0  0  0  0
   -6.8362    0.4316   -0.2622 H   0  0  0  0  0  0  0  0  0  0  0  0
   -6.4428   -0.2737    2.2436 H   0  0  0  0  0  0  0  0  0  0  0  0
    4.8774   -2.3529    4.4330 H   0  0  0  0  0  0  0  0  0  0  0  0
    3.8919   -3.4751    3.4407 H   0  0  0  0  0  0  0  0  0  0  0  0
   -2.1734    2.8841   -5.6423 H   0  0  0  0  0  0  0  0  0  0  0  0
   -1.5650    3.6534   -4.1495 H   0  0  0  0  0  0  0  0  0  0  0  0
    3.9317    2.1662    3.7604 H   0  0  0  0  0  0  0  0  0  0  0  0
    4.8506    0.8532    4.5506 H   0  0  0  0  0  0  0  0  0  0  0  0
   -2.2678   -1.7584   -5.6401 H   0  0  0  0  0  0  0  0  0  0  0  0
   -2.5621   -0.1925   -6.4644 H   0  0  0  0  0  0  0  0  0  0  0  0
    4.7992    0.1897   -4.8510 H   0  0  0  0  0  0  0  0  0  0  0  0
    6.2568   -0.2736   -2.7228 H   0  0  0  0  0  0  0  0  0  0  0  0
    3.1093   -1.1235   -5.9177 H   0  0  0  0  0  0  0  0  0  0  0  0
    2.2985   -2.3317   -4.8778 H   0  0  0  0  0  0  0  0  0  0  0  0
    3.0918    3.2385   -4.3327 H   0  0  0  0  0  0  0  0  0  0  0  0
    3.5614    2.0187   -5.5583 H   0  0  0  0  0  0  0  0  0  0  0  0
    5.7623    2.4877   -0.5548 H   0  0  0  0  0  0  0  0  0  0  0  0
    6.8073    1.0705   -0.8930 H   0  0  0  0  0  0  0  0  0  0  0  0
    6.3173   -2.0738   -1.1791 H   0  0  0  0  0  0  0  0  0  0  0  0
    4.8342   -3.0655   -1.0770 H   0  0  0  0  0  0  0  0  0  0  0  0
   -5.3418   -2.2059   -2.1296 H   0  0  0  0  0  0  0  0  0  0  0  0
   -6.4443   -0.8003   -2.2521 H   0  0  0  0  0  0  0  0  0  0  0  0
   -6.2670    2.2990   -1.5704 H   0  0  0  0  0  0  0  0  0  0  0  0
   -4.9151    3.3056   -0.9681 H   0  0  0  0  0  0  0  0  0  0  0  0
   -4.2973   -3.0577    2.3711 H   0  0  0  0  0  0  0  0  0  0  0  0
   -5.4068   -2.0300    3.3211 H   0  0  0  0  0  0  0  0  0  0  0  0
   -5.6259    1.1059    4.0509 H   0  0  0  0  0  0  0  0  0  0  0  0
   -4.5570    2.4615    3.5598 H   0  0  0  0  0  0  0  0  0  0  0  0
    1.1984   -0.8675    6.6601 H   0  0  0  0  0  0  0  0  0  0  0  0
    3.6448   -0.7518    5.7202 H   0  0  0  0  0  0  0  0  0  0  0  0
   -0.5188    0.7971    6.7299 H   0  0  0  0  0  0  0  0  0  0  0  0
   -0.3819    2.1009    5.5132 H   0  0  0  0  0  0  0  0  0  0  0  0
   -0.4697   -3.5332    5.0561 H   0  0  0  0  0  0  0  0  0  0  0  0
   -0.5345   -2.3855    6.4298 H   0  0  0  0  0  0  0  0  0  0  0  0
   -0.0593    5.0488    1.2091 C   0  0  0  0  0  0  0  0  0  0  0  0
   -0.0575    5.5993   -0.0672 C   0  0  0  0  0  0  0  0  0  0  0  0
   -0.0125    4.9454   -1.2928 C   0  0  0  0  0  0  0  0  0  0  0  0
    0.0420    3.5797   -1.5450 C   0  0  0  0  0  0  0  0  0  0  0  0
    0.0648    2.5304   -0.6337 C   0  0  0  0  0  3  0  0  0  0  0  0
    0.0389    2.5878    0.7548 C   0  0  0  0  0  0  0  0  0  0  0  0
   -0.0164    3.7086    1.5749 C   0  0  0  0  0  0  0  0  0  0  0  0
   -0.0994    5.7585    2.0272 H   0  0  0  0  0  0  0  0  0  0  0  0
   -0.0965    6.6814   -0.1126 H   0  0  0  0  0  0  0  0  0  0  0  0
   -0.0209    5.5851   -2.1677 H   0  0  0  0  0  0  0  0  0  0  0  0
    0.0704    3.2952   -2.5904 H   0  0  0  0  0  0  0  0  0  0  0  0
    0.1087    1.5360   -1.0625 H   0  0  0  0  0  0  0  0  0  0  0  0
    0.0651    1.6322    1.2655 H   0  0  0  0  0  0  0  0  0  0  0  0
   -0.0275    3.5114    2.6405 H   0  0  0  0  0  0  0  0  0  0  0  0
  1  5  1  0
  1 65  1  0
  2  1  1  0
  2  6  1  0
  2  3  1  0
  2 85  1  6
  3  4  1  0
  3  8  1  0
  3 86  1  6
  4  5  1  0
  5  9  2  0
  6 66  1  0
  6  7  1  0
  7 10  2  0
  8 52  1  0
  8  7  1  0
 11 15  1  0
 12 11  1  0
 12 16  1  0
 12 13  1  0
 12 87  1  6
 13 14  1  0
 13 18  1  0
 13 88  1  6
 14 69  1  0
 15 19  2  0
 15 14  1  0
 16 17  1  0
 17 18  1  0
 17 20  2  0
 18 70  1  0
 21 25  1  0
 22 21  1  0
 22 23  1  0
 22 89  1  1
 23 24  1  0
 23 28  1  0
 23 90  1  1
 24 51  1  0
 25 24  1  0
 26 22  1  0
 26 27  1  0
 27 28  1  0
 28 53  1  0
 29 25  2  0
 30 27  2  0
 31 84  1  0
 32 31  1  0
 32 33  1  0
 32 91  1  1
 33 34  1  0
 33 92  1  1
 34 35  1  0
 35 31  1  0
 36 32  1  0
 36 83  1  0
 37 36  1  0
 38 37  1  0
 38 33  1  0
 39 35  2  0
 40 37  2  0
 41 45  1  0
 42 41  1  0
 42 43  1  0
 42 93  1  1
 43 44  1  0
 43 48  1  0
 43 94  1  1
 44 71  1  0
 45 44  1  0
 46 42  1  0
 46 47  1  0
 47 50  2  0
 47 48  1  0
 48 72  1  0
 49 45  2  0
 51 80  1  0
 51 95  1  1
 51 96  1  0
 52 16  1  0
 52 97  1  6
 52 98  1  0
 53 76  1  0
 53 99  1  6
 53100  1  0
 54  4  1  0
 54 11  1  0
 54101  1  6
 54102  1  0
 55 59  1  0
 56 55  1  0
 56 60  1  0
 56 57  1  0
 56103  1  6
 57 58  1  0
 57 62  1  0
 57104  1  6
 58 68  1  0
 59 63  2  0
 59 58  1  0
 60 61  1  0
 61 64  2  0
 61 62  1  0
 62 67  1  0
 65 55  1  0
 65105  1  6
 65106  1  0
 66 60  1  0
 66107  1  1
 66108  1  0
 67 26  1  0
 67109  1  1
 67110  1  0
 68 21  1  0
 68111  1  6
 68112  1  0
 69 41  1  0
 69113  1  1
 69114  1  0
 70 46  1  0
 70115  1  6
 70116  1  0
 71 34  1  0
 71117  1  6
 71118  1  0
 72 38  1  0
 72119  1  1
 72120  1  0
 73 74  1  0
 73 83  1  0
 74 78  1  0
 74 75  1  0
 74121  1  1
 75 80  1  0
 75122  1  1
 76 77  1  0
 76 75  1  0
 77 73  1  0
 78 84  1  0
 79 78  1  0
 80 79  1  0
 81 77  2  0
 82 79  2  0
 83123  1  1
 83124  1  0
 84125  1  1
 84126  1  0
127128  2  0
128129  1  0
129130  2  0
130131  1  0
131132  1  0
132133  2  0
133127  1  0
127134  1  0
128135  1  0
129136  1  0
130137  1  0
131138  1  0
132139  1  0
133140  1  0
M  CHG  1 131   1
M  END
$$$$

     RDKit          3D

140161  0  0  1  0  0  0  0  0999 V2000
    1.3410   -0.5630   -5.0620 N   0  0  0  0  0  0  0  0  0  0  0  0
    1.2350    0.7530   -5.6450 C   0  0  1  0  0  0  0  0  0  0  0  0
   -0.3060    0.9780   -5.7310 C   0  0  1  0  0  0  0  0  0  0  0  0
   -0.8470   -0.3140   -5.4200 N   0  0  0  0  0  0  0  0  0  0  0  0
    0.1230   -1.2290   -5.0420 C   0  0  0  0  0  0  0  0  0  0  0  0
    1.6850    1.8550   -4.8460 N   0  0  0  0  0  0  0  0  0  0  0  0
    0.6440    2.6120   -4.3330 C   0  0  0  0  0  0  0  0  0  0  0  0
   -0.5370    2.0290   -4.7700 N   0  0  0  0  0  0  0  0  0  0  0  0
   -0.0530   -2.4000   -4.8020 O   0  0  0  0  0  0  0  0  0  0  0  0
    0.7490    3.6240   -3.6810 O   0  0  0  0  0  0  0  0  0  0  0  0
   -3.1110   -0.2710   -4.5300 N   0  0  0  0  0  0  0  0  0  0  0  0
   -3.6590    1.0500   -4.4030 C   0  0  1  0  0  0  0  0  0  0  0  0
   -4.7400    0.8890   -3.2890 C   0  0  1  0  0  0  0  0  0  0  0  0
   -4.5400   -0.4620   -2.8270 N   0  0  0  0  0  0  0  0  0  0  0  0
   -3.6610   -1.1740   -3.6330 C   0  0  0  0  0  0  0  0  0  0  0  0
   -2.7860    2.0670   -3.8730 N   0  0  0  0  0  0  0  0  0  0  0  0
   -3.2890    2.6520   -2.7200 C   0  0  0  0  0  0  0  0  0  0  0  0
   -4.4250    1.9420   -2.3680 N   0  0  0  0  0  0  0  0  0  0  0  0
   -3.4600   -2.3640   -3.6020 O   0  0  0  0  0  0  0  0  0  0  0  0
   -2.8550    3.6320   -2.1630 O   0  0  0  0  0  0  0  0  0  0  0  0
    4.9990   -1.6050    0.3100 N   0  0  0  0  0  0  0  0  0  0  0  0
    5.7500   -0.5370    0.9280 C   0  0  2  0  0  0  0  0  0  0  0  0
    5.2890   -0.6010    2.4160 C   0  0  2  0  0  0  0  0  0  0  0  0
    4.5660   -1.8370    2.4860 N   0  0  0  0  0  0  0  0  0  0  0  0
    4.4000   -2.4360    1.2470 C   0  0  0  0  0  0  0  0  0  0  0  0
    5.4160    0.8010    0.5360 N   0  0  0  0  0  0  0  0  0  0  0  0
    4.6970    1.4840    1.5040 C   0  0  0  0  0  0  0  0  0  0  0  0
    4.5220    0.6130    2.5710 N   0  0  0  0  0  0  0  0  0  0  0  0
    3.8850   -3.5070    1.0340 O   0  0  0  0  0  0  0  0  0  0  0  0
    4.3440    2.6380    1.4520 O   0  0  0  0  0  0  0  0  0  0  0  0
   -1.6400   -1.8800    4.8240 N   0  0  0  0  0  0  0  0  0  0  0  0
   -2.2420   -0.6820    5.3320 C   0  0  2  0  0  0  0  0  0  0  0  0
   -3.5860   -0.5950    4.5460 C   0  0  2  0  0  0  0  0  0  0  0  0
   -3.4410   -1.6150    3.5360 N   0  0  0  0  0  0  0  0  0  0  0  0
   -2.3460   -2.4350    3.7680 C   0  0  0  0  0  0  0  0  0  0  0  0
   -1.5920    0.5650    5.0070 N   0  0  0  0  0  0  0  0  0  0  0  0
   -2.4520    1.4580    4.3800 C   0  0  0  0  0  0  0  0  0  0  0  0
   -3.6170    0.7650    4.0920 N   0  0  0  0  0  0  0  0  0  0  0  0
   -2.0890   -3.4700    3.2020 O   0  0  0  0  0  0  0  0  0  0  0  0
   -2.2490    2.6310    4.1800 O   0  0  0  0  0  0  0  0  0  0  0  0
   -5.3360   -0.8900   -0.5730 N   0  0  0  0  0  0  0  0  0  0  0  0
   -5.8430    0.2690    0.1010 C   0  0  1  0  0  0  0  0  0  0  0  0
   -5.6090   -0.0600    1.6080 C   0  0  1  0  0  0  0  0  0  0  0  0
   -4.7930   -1.2490    1.5610 N   0  0  0  0  0  0  0  0  0  0  0  0
   -4.7210   -1.7890    0.2840 C   0  0  0  0  0  0  0  0  0  0  0  0
   -5.1160    1.5030   -0.0830 N   0  0  0  0  0  0  0  0  0  0  0  0
   -4.7190    2.0630    1.1250 C   0  0  0  0  0  0  0  0  0  0  0  0
   -4.9900    1.1310    2.1140 N   0  0  0  0  0  0  0  0  0  0  0  0
   -4.2650   -2.8660   -0.0170 O   0  0  0  0  0  0  0  0  0  0  0  0
   -4.2810    3.1760    1.2910 O   0  0  0  0  0  0  0  0  0  0  0  0
    4.1080   -2.4590    3.6970 C   0  0  2  0  0  0  0  0  0  0  0  0
   -1.7830    2.7370   -4.6570 C   0  0  2  0  0  0  0  0  0  0  0  0
    4.0850    1.1110    3.8490 C   0  0  2  0  0  0  0  0  0  0  0  0
   -2.2240   -0.6910   -5.5800 C   0  0  2  0  0  0  0  0  0  0  0  0
    3.4340   -0.9760   -3.9100 N   0  0  0  0  0  0  0  0  0  0  0  0
    4.3330    0.1440   -3.8890 C   0  0  2  0  0  0  0  0  0  0  0  0
    5.2040   -0.1130   -2.6190 C   0  0  2  0  0  0  0  0  0  0  0  0
    4.6440   -1.3190   -2.0690 N   0  0  0  0  0  0  0  0  0  0  0  0
    3.6480   -1.8630   -2.8660 C   0  0  0  0  0  0  0  0  0  0  0  0
    3.7520    1.4370   -3.6380 N   0  0  0  0  0  0  0  0  0  0  0  0
    4.2370    2.0290   -2.4810 C   0  0  0  0  0  0  0  0  0  0  0  0
    5.0350    1.0890   -1.8480 N   0  0  0  0  0  0  0  0  0  0  0  0
    3.1120   -2.9340   -2.7150 O   0  0  0  0  0  0  0  0  0  0  0  0
    4.0500    3.1670   -2.1250 O   0  0  0  0  0  0  0  0  0  0  0  0
    2.5730   -1.3060   -5.0100 C   0  0  2  0  0  0  0  0  0  0  0  0
    3.0600    2.2120   -4.6330 C   0  0  2  0  0  0  0  0  0  0  0  0
    5.8190    1.4280   -0.6920 C   0  0  1  0  0  0  0  0  0  0  0  0
    5.2590   -2.0850   -1.0220 C   0  0  1  0  0  0  0  0  0  0  0  0
   -5.4730   -1.1550   -1.9770 C   0  0  2  0  0  0  0  0  0  0  0  0
   -5.2450    2.3290   -1.2550 C   0  0  2  0  0  0  0  0  0  0  0  0
   -4.5280   -2.0700    2.7120 C   0  0  1  0  0  0  0  0  0  0  0  0
   -4.7580    1.4120    3.5050 C   0  0  1  0  0  0  0  0  0  0  0  0
    0.8230    0.5110    5.2210 N   0  0  0  0  0  0  0  0  0  0  0  0
    1.3580   -0.7650    5.6070 C   0  0  2  0  0  0  0  0  0  0  0  0
    2.8150   -0.7320    5.0450 C   0  0  2  0  0  0  0  0  0  0  0  0
    2.8710    0.5230    4.3410 N   0  0  0  0  0  0  0  0  0  0  0  0
    1.7250    1.2860    4.5100 C   0  0  0  0  0  0  0  0  0  0  0  0
    0.7840   -1.9250    4.9760 N   0  0  0  0  0  0  0  0  0  0  0  0
    1.7160   -2.6590    4.2570 C   0  0  0  0  0  0  0  0  0  0  0  0
    2.8920   -1.9250    4.2480 N   0  0  0  0  0  0  0  0  0  0  0  0
    1.5670    2.4300    4.1590 O   0  0  0  0  0  0  0  0  0  0  0  0
    1.5540   -3.7580    3.7810 O   0  0  0  0  0  0  0  0  0  0  0  0
   -0.4220    1.0470    5.6940 C   0  0  2  0  0  0  0  0  0  0  0  0
   -0.4700   -2.5100    5.3690 C   0  0  2  0  0  0  0  0  0  0  0  0
    1.8262    0.7519   -6.5368 H   0  0  0  0  0  0  0  0  0  0  0  0
   -0.7495    1.2891   -6.6537 H   0  0  0  0  0  0  0  0  0  0  0  0
   -3.9500    1.3636   -5.3837 H   0  0  0  0  0  0  0  0  0  0  0  0
   -5.7768    0.9872   -3.5345 H   0  0  0  0  0  0  0  0  0  0  0  0
    6.7798   -0.6871    0.6794 H   0  0  0  0  0  0  0  0  0  0  0  0
    6.0161   -0.6201    3.2007 H   0  0  0  0  0  0  0  0  0  0  0  0
   -2.2502   -0.7649    6.3988 H   0  0  0  0  0  0  0  0  0  0  0  0
   -4.5118   -0.7776    5.0504 H   0  0  0  0  0  0  0  0  0  0  0  0
   -6.8362    0.4316   -0.2622 H   0  0  0  0  0  0  0  0  0  0  0  0
   -6.4428   -0.2737    2.2436 H   0  0  0  0  0  0  0  0  0  0  0  0
    4.8774   -2.3529    4.4330 H   0  0  0  0  0  0  0  0  0  0  0  0
    3.8919   -3.4751    3.4407 H   0  0  0  0  0  0  0  0  0  0  0  0
   -2.1734    2.8841   -5.6423 H   0  0  0  0  0  0  0  0  0  0  0  0
   -1.5650    3.6534   -4.1495 H   0  0  0  0  0  0  0  0  0  0  0  0
    3.9317    2.1662    3.7604 H   0  0  0  0  0  0  0  0  0  0  0  0
    4.8506    0.8532    4.5506 H   0  0  0  0  0  0  0  0  0  0  0  0
   -2.2678   -1.7584   -5.6401 H   0  0  0  0  0  0  0  0  0  0  0  0
   -2.5621   -0.1925   -6.4644 H   0  0  0  0  0  0  0  0  0  0  0  0
    4.7992    0.1897   -4.8510 H   0  0  0  0  0  0  0  0  0  0  0  0
    6.2568   -0.2736   -2.7228 H   0  0  0  0  0  0  0  0  0  0  0  0
    3.1093   -1.1235   -5.9177 H   0  0  0  0  0  0  0  0  0  0  0  0
    2.2985   -2.3317   -4.8778 H   0  0  0  0  0  0  0  0  0  0  0  0
    3.0918    3.2385   -4.3327 H   0  0  0  0  0  0  0  0  0  0  0  0
    3.5614    2.0187   -5.5583 H   0  0  0  0  0  0  0  0  0  0  0  0
    5.7623    2.4877   -0.5548 H   0  0  0  0  0  0  0  0  0  0  0  0
    6.8073    1.0705   -0.8930 H   0  0  0  0  0  0  0  0  0  0  0  0
    6.3173   -2.0738   -1.1791 H   0  0  0  0  0  0  0  0  0  0  0  0
    4.8342   -3.0655   -1.0770 H   0  0  0  0  0  0  0  0  0  0  0  0
   -5.3418   -2.2059   -2.1296 H   0  0  0  0  0  0  0  0  0  0  0  0
   -6.4443   -0.8003   -2.2521 H   0  0  0  0  0  0  0  0  0  0  0  0
   -6.2670    2.2990   -1.5704 H   0  0  0  0  0  0  0  0  0  0  0  0
   -4.9151    3.3056   -0.9681 H   0  0  0  0  0  0  0  0  0  0  0  0
   -4.2973   -3.0577    2.3711 H   0  0  0  0  0  0  0  0  0  0  0  0
   -5.4068   -2.0300    3.3211 H   0  0  0  0  0  0  0  0  0  0  0  0
   -5.6259    1.1059    4.0509 H   0  0  0  0  0  0  0  0  0  0  0  0
   -4.5570    2.4615    3.5598 H   0  0  0  0  0  0  0  0  0  0  0  0
    1.1984   -0.8675    6.6601 H   0  0  0  0  0  0  0  0  0  0  0  0
    3.6448   -0.7518    5.7202 H   0  0  0  0  0  0  0  0  0  0  0  0
   -0.5188    0.7971    6.7299 H   0  0  0  0  0  0  0  0  0  0  0  0
   -0.3819    2.1009    5.5132 H   0  0  0  0  0  0  0  0  0  0  0  0
   -0.4697   -3.5332    5.0561 H   0  0  0  0  0  0  0  0  0  0  0  0
   -0.5345   -2.3855    6.4298 H   0  0  0  0  0  0  0  0  0  0  0  0
   -0.0593    1.3564   -0.8498 C   0  0  0  0  0  0  0  0  0  0  0  0
   -0.0575    0.1803   -1.5905 C   0  0  0  0  0  0  0  0  0  0  0  0
   -0.0125   -1.1315   -1.1335 C   0  0  0  0  0  0  0  0  0  0  0  0
    0.0420   -1.5913    0.1770 C   0  0  0  0  0  0  0  0  0  0  0  0
    0.0648   -0.8528    1.3542 C   0  0  0  0  0  3  0  0  0  0  0  0
    0.0389    0.5279    1.5117 C   0  0  0  0  0  0  0  0  0  0  0  0
   -0.0164    1.5111    0.5308 C   0  0  0  0  0  0  0  0  0  0  0  0
   -0.0994    2.2742   -1.4248 H   0  0  0  0  0  0  0  0  0  0  0  0
   -0.0965    0.3023   -2.6667 H   0  0  0  0  0  0  0  0  0  0  0  0
   -0.0209   -1.8972   -1.9005 H   0  0  0  0  0  0  0  0  0  0  0  0
    0.0704   -2.6681    0.2967 H   0  0  0  0  0  0  0  0  0  0  0  0
    0.1087   -1.4299    2.2706 H   0  0  0  0  0  0  0  0  0  0  0  0
    0.0651    0.8851    2.5346 H   0  0  0  0  0  0  0  0  0  0  0  0
   -0.0275    2.5336    0.8900 H   0  0  0  0  0  0  0  0  0  0  0  0
  1  5  1  0
  1 65  1  0
  2  1  1  0
  2  6  1  0
  2  3  1  0
  2 85  1  6
  3  4  1  0
  3  8  1  0
  3 86  1  6
  4  5  1  0
  5  9  2  0
  6 66  1  0
  6  7  1  0
  7 10  2  0
  8 52  1  0
  8  7  1  0
 11 15  1  0
 12 11  1  0
 12 16  1  0
 12 13  1  0
 12 87  1  6
 13 14  1  0
 13 18  1  0
 13 88  1  6
 14 69  1  0
 15 19  2  0
 15 14  1  0
 16 17  1  0
 17 18  1  0
 17 20  2  0
 18 70  1  0
 21 25  1  0
 22 21  1  0
 22 23  1  0
 22 89  1  1
 23 24  1  0
 23 28  1  0
 23 90  1  1
 24 51  1  0
 25 24  1  0
 26 22  1  0
 26 27  1  0
 27 28  1  0
 28 53  1  0
 29 25  2  0
 30 27  2  0
 31 84  1  0
 32 31  1  0
 32 33  1  0
 32 91  1  1
 33 34  1  0
 33 92  1  1
 34 35  1  0
 35 31  1  0
 36 32  1  0
 36 83  1  0
 37 36  1  0
 38 37  1  0
 38 33  1  0
 39 35  2  0
 40 37  2  0
 41 45  1  0
 42 41  1  0
 42 43  1  0
 42 93  1  1
 43 44  1  0
 43 48  1  0
 43 94  1  1
 44 71  1  0
 45 44  1  0
 46 42  1  0
 46 47  1  0
 47 50  2  0
 47 48  1  0
 48 72  1  0
 49 45  2  0
 51 80  1  0
 51 95  1  1
 51 96  1  0
 52 16  1  0
 52 97  1  6
 52 98  1  0
 53 76  1  0
 53 99  1  6
 53100  1  0
 54  4  1  0
 54 11  1  0
 54101  1  6
 54102  1  0
 55 59  1  0
 56 55  1  0
 56 60  1  0
 56 57  1  0
 56103  1  6
 57 58  1  0
 57 62  1  0
 57104  1  6
 58 68  1  0
 59 63  2  0
 59 58  1  0
 60 61  1  0
 61 64  2  0
 61 62  1  0
 62 67  1  0
 65 55  1  0
 65105  1  6
 65106  1  0
 66 60  1  0
 66107  1  1
 66108  1  0
 67 26  1  0
 67109  1  1
 67110  1  0
 68 21  1  0
 68111  1  6
 68112  1  0
 69 41  1  0
 69113  1  1
 69114  1  0
 70 46  1  0
 70115  1  6
 70116  1  0
 71 34  1  0
 71117  1  6
 71118  1  0
 72 38  1  0
 72119  1  1
 72120  1  0
 73 74  1  0
 73 83  1  0
 74 78  1  0
 74 75  1  0
 74121  1  1
 75 80  1  0
 75122  1  1
 76 77  1  0
 76 75  1  0
 77 73  1  0
 78 84  1  0
 79 78  1  0
 80 79  1  0
 81 77  2  0
 82 79  2  0
 83123  1  1
 83124  1  0
 84125  1  1
 84126  1  0
127128  2  0
128129  1  0
129130  2  0
130131  1  0
131132  1  0
132133  2  0
133127  1  0
127134  1  0
128135  1  0
129136  1  0
130137  1  0
131138  1  0
132139  1  0
133140  1  0
M  CHG  1 131   1
M  END
$$$$

     RDKit          3D

140161  0  0  1  0  0  0  0  0999 V2000
    1.3410   -0.5630   -5.0620 N   0  0  0  0  0  0  0  0  0  0  0  0
    1.2350    0.7530   -5.6450 C   0  0  1  0  0  0  0  0  0  0  0  0
   -0.3060    0.9780   -5.7310 C   0  0  1  0  0  0  0  0  0  0  0  0
   -0.8470   -0.3140   -5.4200 N   0  0  0  0  0  0  0  0  0  0  0  0
    0.1230   -1.2290   -5.0420 C   0  0  0  0  0  0  0  0  0  0  0  0
    1.6850    1.8550   -4.8460 N   0  0  0  0  0  0  0  0  0  0  0  0
    0.6440    2.6120   -4.3330 C   0  0  0  0  0  0  0  0  0  0  0  0
   -0.5370    2.0290   -4.7700 N   0  0  0  0  0  0  0  0  0  0  0  0
   -0.0530   -2.4000   -4.8020 O   0  0  0  0  0  0  0  0  0  0  0  0
    0.7490    3.6240   -3.6810 O   0  0  0  0  0  0  0  0  0  0  0  0
   -3.1110   -0.2710   -4.5300 N   0  0  0  0  0  0  0  0  0  0  0  0
   -3.6590    1.0500   -4.4030 C   0  0  1  0  0  0  0  0  0  0  0  0
   -4.7400    0.8890   -3.2890 C   0  0  1  0  0  0  0  0  0  0  0  0
   -4.5400   -0.4620   -2.8270 N   0  0  0  0  0  0  0  0  0  0  0  0
   -3.6610   -1.1740   -3.6330 C   0  0  0  0  0  0  0  0  0  0  0  0
   -2.7860    2.0670   -3.8730 N   0  0  0  0  0  0  0  0  0  0  0  0
   -3.2890    2.6520   -2.7200 C   0  0  0  0  0  0  0  0  0  0  0  0
   -4.4250    1.9420   -2.3680 N   0  0  0  0  0  0  0  0  0  0  0  0
   -3.4600   -2.3640   -3.6020 O   0  0  0  0  0  0  0  0  0  0  0  0
   -2.8550    3.6320   -2.1630 O   0  0  0  0  0  0  0  0  0  0  0  0
    4.9990   -1.6050    0.3100 N   0  0  0  0  0  0  0  0  0  0  0  0
    5.7500   -0.5370    0.9280 C   0  0  2  0  0  0  0  0  0  0  0  0
    5.2890   -0.6010    2.4160 C   0  0  2  0  0  0  0  0  0  0  0  0
    4.5660   -1.8370    2.4860 N   0  0  0  0  0  0  0  0  0  0  0  0
    4.4000   -2.4360    1.2470 C   0  0  0  0  0  0  0  0  0  0  0  0
    5.4160    0.8010    0.5360 N   0  0  0  0  0  0  0  0  0  0  0  0
    4.6970    1.4840    1.5040 C   0  0  0  0  0  0  0  0  0  0  0  0
    4.5220    0.6130    2.5710 N   0  0  0  0  0  0  0  0  0  0  0  0
    3.8850   -3.5070    1.0340 O   0  0  0  0  0  0  0  0  0  0  0  0
    4.3440    2.6380    1.4520 O   0  0  0  0  0  0  0  0  0  0  0  0
   -1.6400   -1.8800    4.8240 N   0  0  0  0  0  0  0  0  0  0  0  0
   -2.2420   -0.6820    5.3320 C   0  0  2  0  0  0  0  0  0  0  0  0
   -3.5860   -0.5950    4.5460 C   0  0  2  0  0  0  0  0  0  0  0  0
   -3.4410   -1.6150    3.5360 N   0  0  0  0  0  0  0  0  0  0  0  0
   -2.3460   -2.4350    3.7680 C   0  0  0  0  0  0  0  0  0  0  0  0
   -1.5920    0.5650    5.0070 N   0  0  0  0  0  0  0  0  0  0  0  0
   -2.4520    1.4580    4.3800 C   0  0  0  0  0  0  0  0  0  0  0  0
   -3.6170    0.7650    4.0920 N   0  0  0  0  0  0  0  0  0  0  0  0
   -2.0890   -3.4700    3.2020 O   0  0  0  0  0  0  0  0  0  0  0  0
   -2.2490    2.6310    4.1800 O   0  0  0  0  0  0  0  0  0  0  0  0
   -5.3360   -0.8900   -0.5730 N   0  0  0  0  0  0  0  0  0  0  0  0
   -5.8430    0.2690    0.1010 C   0  0  1  0  0  0  0  0  0  0  0  0
   -5.6090   -0.0600    1.6080 C   0  0  1  0  0  0  0  0  0  0  0  0
   -4.7930   -1.2490    1.5610 N   0  0  0  0  0  0  0  0  0  0  0  0
   -4.7210   -1.7890    0.2840 C   0  0  0  0  0  0  0  0  0  0  0  0
   -5.1160    1.5030   -0.0830 N   0  0  0  0  0  0  0  0  0  0  0  0
   -4.7190    2.0630    1.1250 C   0  0  0  0  0  0  0  0  0  0  0  0
   -4.9900    1.1310    2.1140 N   0  0  0  0  0  0  0  0  0  0  0  0
   -4.2650   -2.8660   -0.0170 O   0  0  0  0  0  0  0  0  0  0  0  0
   -4.2810    3.1760    1.2910 O   0  0  0  0  0  0  0  0  0  0  0  0
    4.1080   -2.4590    3.6970 C   0  0  2  0  0  0  0  0  0  0  0  0
   -1.7830    2.7370   -4.6570 C   0  0  2  0  0  0  0  0  0  0  0  0
    4.0850    1.1110    3.8490 C   0  0  2  0  0  0  0  0  0  0  0  0
   -2.2240   -0.6910   -5.5800 C   0  0  2  0  0  0  0  0  0  0  0  0
    3.4340   -0.9760   -3.9100 N   0  0  0  0  0  0  0  0  0  0  0  0
    4.3330    0.1440   -3.8890 C   0  0  2  0  0  0  0  0  0  0  0  0
    5.2040   -0.1130   -2.6190 C   0  0  2  0  0  0  0  0  0  0  0  0
    4.6440   -1.3190   -2.0690 N   0  0  0  0  0  0  0  0  0  0  0  0
    3.6480   -1.8630   -2.8660 C   0  0  0  0  0  0  0  0  0  0  0  0
    3.7520    1.4370   -3.6380 N   0  0  0  0  0  0  0  0  0  0  0  0
    4.2370    2.0290   -2.4810 C   0  0  0  0  0  0  0  0  0  0  0  0
    5.0350    1.0890   -1.8480 N   0  0  0  0  0  0  0  0  0  0  0  0
    3.1120   -2.9340   -2.7150 O   0  0  0  0  0  0  0  0  0  0  0  0
    4.0500    3.1670   -2.1250 O   0  0  0  0  0  0  0  0  0  0  0  0
    2.5730   -1.3060   -5.0100 C   0  0  2  0  0  0  0  0  0  0  0  0
    3.0600    2.2120   -4.6330 C   0  0  2  0  0  0  0  0  0  0  0  0
    5.8190    1.4280   -0.6920 C   0  0  1  0  0  0  0  0  0  0  0  0
    5.2590   -2.0850   -1.0220 C   0  0  1  0  0  0  0  0  0  0  0  0
   -5.4730   -1.1550   -1.9770 C   0  0  2  0  0  0  0  0  0  0  0  0
   -5.2450    2.3290   -1.2550 C   0  0  2  0  0  0  0  0  0  0  0  0
   -4.5280   -2.0700    2.7120 C   0  0  1  0  0  0  0  0  0  0  0  0
   -4.7580    1.4120    3.5050 C   0  0  1  0  0  0  0  0  0  0  0  0
    0.8230    0.5110    5.2210 N   0  0  0  0  0  0  0  0  0  0  0  0
    1.3580   -0.7650    5.6070 C   0  0  2  0  0  0  0  0  0  0  0  0
    2.8150   -0.7320    5.0450 C   0  0  2  0  0  0  0  0  0  0  0  0
    2.8710    0.5230    4.3410 N   0  0  0  0  0  0  0  0  0  0  0  0
    1.7250    1.2860    4.5100 C   0  0  0  0  0  0  0  0  0  0  0  0
    0.7840   -1.9250    4.9760 N   0  0  0  0  0  0  0  0  0  0  0  0
    1.7160   -2.6590    4.2570 C   0  0  0  0  0  0  0  0  0  0  0  0
    2.8920   -1.9250    4.2480 N   0  0  0  0  0  0  0  0  0  0  0  0
    1.5670    2.4300    4.1590 O   0  0  0  0  0  0  0  0  0  0  0  0
    1.5540   -3.7580    3.7810 O   0  0  0  0  0  0  0  0  0  0  0  0
   -0.4220    1.0470    5.6940 C   0  0  2  0  0  0  0  0  0  0  0  0
   -0.4700   -2.5100    5.3690 C   0  0  2  0  0  0  0  0  0  0  0  0
    1.8262    0.7519   -6.5368 H   0  0  0  0  0  0  0  0  0  0  0  0
   -0.7495    1.2891   -6.6537 H   0  0  0  0  0  0  0  0  0  0  0  0
   -3.9500    1.3636   -5.3837 H   0  0  0  0  0  0  0  0  0  0  0  0
   -5.7768    0.9872   -3.5345 H   0  0  0  0  0  0  0  0  0  0  0  0
    6.7798   -0.6871    0.6794 H   0  0  0  0  0  0  0  0  0  0  0  0
    6.0161   -0.6201    3.2007 H   0  0  0  0  0  0  0  0  0  0  0  0
   -2.2502   -0.7649    6.3988 H   0  0  0  0  0  0  0  0  0  0  0  0
   -4.5118   -0.7776    5.0504 H   0  0  0  0  0  0  0  0  0  0  0  0
   -6.8362    0.4316   -0.2622 H   0  0  0  0  0  0  0  0  0  0  0  0
   -6.4428   -0.2737    2.2436 H   0  0  0  0  0  0  0  0  0  0  0  0
    4.8774   -2.3529    4.4330 H   0  0  0  0  0  0  0  0  0  0  0  0
    3.8919   -3.4751    3.4407 H   0  0  0  0  0  0  0  0  0  0  0  0
   -2.1734    2.8841   -5.6423 H   0  0  0  0  0  0  0  0  0  0  0  0
   -1.5650    3.6534   -4.1495 H   0  0  0  0  0  0  0  0  0  0  0  0
    3.9317    2.1662    3.7604 H   0  0  0  0  0  0  0  0  0  0  0  0
    4.8506    0.8532    4.5506 H   0  0  0  0  0  0  0  0  0  0  0  0
   -2.2678   -1.7584   -5.6401 H   0  0  0  0  0  0  0  0  0  0  0  0
   -2.5621   -0.1925   -6.4644 H   0  0  0  0  0  0  0  0  0  0  0  0
    4.7992    0.1897   -4.8510 H   0  0  0  0  0  0  0  0  0  0  0  0
    6.2568   -0.2736   -2.7228 H   0  0  0  0  0  0  0  0  0  0  0  0
    3.1093   -1.1235   -5.9177 H   0  0  0  0  0  0  0  0  0  0  0  0
    2.2985   -2.3317   -4.8778 H   0  0  0  0  0  0  0  0  0  0  0  0
    3.0918    3.2385   -4.3327 H   0  0  0  0  0  0  0  0  0  0  0  0
    3.5614    2.0187   -5.5583 H   0  0  0  0  0  0  0  0  0  0  0  0
    5.7623    2.4877   -0.5548 H   0  0  0  0  0  0  0  0  0  0  0  0
    6.8073    1.0705   -0.8930 H   0  0  0  0  0  0  0  0  0  0  0  0
    6.3173   -2.0738   -1.1791 H   0  0  0  0  0  0  0  0  0  0  0  0
    4.8342   -3.0655   -1.0770 H   0  0  0  0  0  0  0  0  0  0  0  0
   -5.3418   -2.2059   -2.1296 H   0  0  0  0  0  0  0  0  0  0  0  0
   -6.4443   -0.8003   -2.2521 H   0  0  0  0  0  0  0  0  0  0  0  0
   -6.2670    2.2990   -1.5704 H   0  0  0  0  0  0  0  0  0  0  0  0
   -4.9151    3.3056   -0.9681 H   0  0  0  0  0  0  0  0  0  0  0  0
   -4.2973   -3.0577    2.3711 H   0  0  0  0  0  0  0  0  0  0  0  0
   -5.4068   -2.0300    3.3211 H   0  0  0  0  0  0  0  0  0  0  0  0
   -5.6259    1.1059    4.0509 H   0  0  0  0  0  0  0  0  0  0  0  0
   -4.5570    2.4615    3.5598 H   0  0  0  0  0  0  0  0  0  0  0  0
    1.1984   -0.8675    6.6601 H   0  0  0  0  0  0  0  0  0  0  0  0
    3.6448   -0.7518    5.7202 H   0  0  0  0  0  0  0  0  0  0  0  0
   -0.5188    0.7971    6.7299 H   0  0  0  0  0  0  0  0  0  0  0  0
   -0.3819    2.1009    5.5132 H   0  0  0  0  0  0  0  0  0  0  0  0
   -0.4697   -3.5332    5.0561 H   0  0  0  0  0  0  0  0  0  0  0  0
   -0.5345   -2.3855    6.4298 H   0  0  0  0  0  0  0  0  0  0  0  0
   -0.0593    2.6897   -0.8498 C   0  0  0  0  0  0  0  0  0  0  0  0
   -0.0575    1.5137   -1.5905 C   0  0  0  0  0  0  0  0  0  0  0  0
   -0.0125    0.2018   -1.1335 C   0  0  0  0  0  0  0  0  0  0  0  0
    0.0420   -0.2580    0.1770 C   0  0  0  0  0  0  0  0  0  0  0  0
    0.0648    0.4805    1.3542 C   0  0  0  0  0  3  0  0  0  0  0  0
    0.0389    1.8612    1.5117 C   0  0  0  0  0  0  0  0  0  0  0  0
   -0.0164    2.8444    0.5308 C   0  0  0  0  0  0  0  0  0  0  0  0
   -0.0994    3.6076   -1.4248 H   0  0  0  0  0  0  0  0  0  0  0  0
   -0.0965    1.6357   -2.6667 H   0  0  0  0  0  0  0  0  0  0  0  0
   -0.0209   -0.5639   -1.9005 H   0  0  0  0  0  0  0  0  0  0  0  0
    0.0704   -1.3348    0.2967 H   0  0  0  0  0  0  0  0  0  0  0  0
    0.1087   -0.0966    2.2706 H   0  0  0  0  0  0  0  0  0  0  0  0
    0.0651    2.2184    2.5346 H   0  0  0  0  0  0  0  0  0  0  0  0
   -0.0275    3.8669    0.8900 H   0  0  0  0  0  0  0  0  0  0  0  0
  1  5  1  0
  1 65  1  0
  2  1  1  0
  2  6  1  0
  2  3  1  0
  2 85  1  6
  3  4  1  0
  3  8  1  0
  3 86  1  6
  4  5  1  0
  5  9  2  0
  6 66  1  0
  6  7  1  0
  7 10  2  0
  8 52  1  0
  8  7  1  0
 11 15  1  0
 12 11  1  0
 12 16  1  0
 12 13  1  0
 12 87  1  6
 13 14  1  0
 13 18  1  0
 13 88  1  6
 14 69  1  0
 15 19  2  0
 15 14  1  0
 16 17  1  0
 17 18  1  0
 17 20  2  0
 18 70  1  0
 21 25  1  0
 22 21  1  0
 22 23  1  0
 22 89  1  1
 23 24  1  0
 23 28  1  0
 23 90  1  1
 24 51  1  0
 25 24  1  0
 26 22  1  0
 26 27  1  0
 27 28  1  0
 28 53  1  0
 29 25  2  0
 30 27  2  0
 31 84  1  0
 32 31  1  0
 32 33  1  0
 32 91  1  1
 33 34  1  0
 33 92  1  1
 34 35  1  0
 35 31  1  0
 36 32  1  0
 36 83  1  0
 37 36  1  0
 38 37  1  0
 38 33  1  0
 39 35  2  0
 40 37  2  0
 41 45  1  0
 42 41  1  0
 42 43  1  0
 42 93  1  1
 43 44  1  0
 43 48  1  0
 43 94  1  1
 44 71  1  0
 45 44  1  0
 46 42  1  0
 46 47  1  0
 47 50  2  0
 47 48  1  0
 48 72  1  0
 49 45  2  0
 51 80  1  0
 51 95  1  1
 51 96  1  0
 52 16  1  0
 52 97  1  6
 52 98  1  0
 53 76  1  0
 53 99  1  6
 53100  1  0
 54  4  1  0
 54 11  1  0
 54101  1  6
 54102  1  0
 55 59  1  0
 56 55  1  0
 56 60  1  0
 56 57  1  0
 56103  1  6
 57 58  1  0
 57 62  1  0
 57104  1  6
 58 68  1  0
 59 63  2  0
 59 58  1  0
 60 61  1  0
 61 64  2  0
 61 62  1  0
 62 67  1  0
 65 55  1  0
 65105  1  6
 65106  1  0
 66 60  1  0
 66107  1  1
 66108  1  0
 67 26  1  0
 67109  1  1
 67110  1  0
 68 21  1  0
 68111  1  6
 68112  1  0
 69 41  1  0
 69113  1  1
 69114  1  0
 70 46  1  0
 70115  1  6
 70116  1  0
 71 34  1  0
 71117  1  6
 71118  1  0
 72 38  1  0
 72119  1  1
 72120  1  0
 73 74  1  0
 73 83  1  0
 74 78  1  0
 74 75  1  0
 74121  1  1
 75 80  1  0
 75122  1  1
 76 77  1  0
 76 75  1  0
 77 73  1  0
 78 84  1  0
 79 78  1  0
 80 79  1  0
 81 77  2  0
 82 79  2  0
 83123  1  1
 83124  1  0
 84125  1  1
 84126  1  0
127128  2  0
128129  1  0
129130  2  0
130131  1  0
131132  1  0
132133  2  0
133127  1  0
127134  1  0
128135  1  0
129136  1  0
130137  1  0
131138  1  0
132139  1  0
133140  1  0
M  CHG  1 131   1
M  END
$$$$

     RDKit          3D

140161  0  0  1  0  0  0  0  0999 V2000
    1.3410   -0.5630   -5.0620 N   0  0  0  0  0  0  0  0  0  0  0  0
    1.2350    0.7530   -5.6450 C   0  0  1  0  0  0  0  0  0  0  0  0
   -0.3060    0.9780   -5.7310 C   0  0  1  0  0  0  0  0  0  0  0  0
   -0.8470   -0.3140   -5.4200 N   0  0  0  0  0  0  0  0  0  0  0  0
    0.1230   -1.2290   -5.0420 C   0  0  0  0  0  0  0  0  0  0  0  0
    1.6850    1.8550   -4.8460 N   0  0  0  0  0  0  0  0  0  0  0  0
    0.6440    2.6120   -4.3330 C   0  0  0  0  0  0  0  0  0  0  0  0
   -0.5370    2.0290   -4.7700 N   0  0  0  0  0  0  0  0  0  0  0  0
   -0.0530   -2.4000   -4.8020 O   0  0  0  0  0  0  0  0  0  0  0  0
    0.7490    3.6240   -3.6810 O   0  0  0  0  0  0  0  0  0  0  0  0
   -3.1110   -0.2710   -4.5300 N   0  0  0  0  0  0  0  0  0  0  0  0
   -3.6590    1.0500   -4.4030 C   0  0  1  0  0  0  0  0  0  0  0  0
   -4.7400    0.8890   -3.2890 C   0  0  1  0  0  0  0  0  0  0  0  0
   -4.5400   -0.4620   -2.8270 N   0  0  0  0  0  0  0  0  0  0  0  0
   -3.6610   -1.1740   -3.6330 C   0  0  0  0  0  0  0  0  0  0  0  0
   -2.7860    2.0670   -3.8730 N   0  0  0  0  0  0  0  0  0  0  0  0
   -3.2890    2.6520   -2.7200 C   0  0  0  0  0  0  0  0  0  0  0  0
   -4.4250    1.9420   -2.3680 N   0  0  0  0  0  0  0  0  0  0  0  0
   -3.4600   -2.3640   -3.6020 O   0  0  0  0  0  0  0  0  0  0  0  0
   -2.8550    3.6320   -2.1630 O   0  0  0  0  0  0  0  0  0  0  0  0
    4.9990   -1.6050    0.3100 N   0  0  0  0  0  0  0  0  0  0  0  0
    5.7500   -0.5370    0.9280 C   0  0  2  0  0  0  0  0  0  0  0  0
    5.2890   -0.6010    2.4160 C   0  0  2  0  0  0  0  0  0  0  0  0
    4.5660   -1.8370    2.4860 N   0  0  0  0  0  0  0  0  0  0  0  0
    4.4000   -2.4360    1.2470 C   0  0  0  0  0  0  0  0  0  0  0  0
    5.4160    0.8010    0.5360 N   0  0  0  0  0  0  0  0  0  0  0  0
    4.6970    1.4840    1.5040 C   0  0  0  0  0  0  0  0  0  0  0  0
    4.5220    0.6130    2.5710 N   0  0  0  0  0  0  0  0  0  0  0  0
    3.8850   -3.5070    1.0340 O   0  0  0  0  0  0  0  0  0  0  0  0
    4.3440    2.6380    1.4520 O   0  0  0  0  0  0  0  0  0  0  0  0
   -1.6400   -1.8800    4.8240 N   0  0  0  0  0  0  0  0  0  0  0  0
   -2.2420   -0.6820    5.3320 C   0  0  2  0  0  0  0  0  0  0  0  0
   -3.5860   -0.5950    4.5460 C   0  0  2  0  0  0  0  0  0  0  0  0
   -3.4410   -1.6150    3.5360 N   0  0  0  0  0  0  0  0  0  0  0  0
   -2.3460   -2.4350    3.7680 C   0  0  0  0  0  0  0  0  0  0  0  0
   -1.5920    0.5650    5.0070 N   0  0  0  0  0  0  0  0  0  0  0  0
   -2.4520    1.4580    4.3800 C   0  0  0  0  0  0  0  0  0  0  0  0
   -3.6170    0.7650    4.0920 N   0  0  0  0  0  0  0  0  0  0  0  0
   -2.0890   -3.4700    3.2020 O   0  0  0  0  0  0  0  0  0  0  0  0
   -2.2490    2.6310    4.1800 O   0  0  0  0  0  0  0  0  0  0  0  0
   -5.3360   -0.8900   -0.5730 N   0  0  0  0  0  0  0  0  0  0  0  0
   -5.8430    0.2690    0.1010 C   0  0  1  0  0  0  0  0  0  0  0  0
   -5.6090   -0.0600    1.6080 C   0  0  1  0  0  0  0  0  0  0  0  0
   -4.7930   -1.2490    1.5610 N   0  0  0  0  0  0  0  0  0  0  0  0
   -4.7210   -1.7890    0.2840 C   0  0  0  0  0  0  0  0  0  0  0  0
   -5.1160    1.5030   -0.0830 N   0  0  0  0  0  0  0  0  0  0  0  0
   -4.7190    2.0630    1.1250 C   0  0  0  0  0  0  0  0  0  0  0  0
   -4.9900    1.1310    2.1140 N   0  0  0  0  0  0  0  0  0  0  0  0
   -4.2650   -2.8660   -0.0170 O   0  0  0  0  0  0  0  0  0  0  0  0
   -4.2810    3.1760    1.2910 O   0  0  0  0  0  0  0  0  0  0  0  0
    4.1080   -2.4590    3.6970 C   0  0  2  0  0  0  0  0  0  0  0  0
   -1.7830    2.7370   -4.6570 C   0  0  2  0  0  0  0  0  0  0  0  0
    4.0850    1.1110    3.8490 C   0  0  2  0  0  0  0  0  0  0  0  0
   -2.2240   -0.6910   -5.5800 C   0  0  2  0  0  0  0  0  0  0  0  0
    3.4340   -0.9760   -3.9100 N   0  0  0  0  0  0  0  0  0  0  0  0
    4.3330    0.1440   -3.8890 C   0  0  2  0  0  0  0  0  0  0  0  0
    5.2040   -0.1130   -2.6190 C   0  0  2  0  0  0  0  0  0  0  0  0
    4.6440   -1.3190   -2.0690 N   0  0  0  0  0  0  0  0  0  0  0  0
    3.6480   -1.8630   -2.8660 C   0  0  0  0  0  0  0  0  0  0  0  0
    3.7520    1.4370   -3.6380 N   0  0  0  0  0  0  0  0  0  0  0  0
    4.2370    2.0290   -2.4810 C   0  0  0  0  0  0  0  0  0  0  0  0
    5.0350    1.0890   -1.8480 N   0  0  0  0  0  0  0  0  0  0  0  0
    3.1120   -2.9340   -2.7150 O   0  0  0  0  0  0  0  0  0  0  0  0
    4.0500    3.1670   -2.1250 O   0  0  0  0  0  0  0  0  0  0  0  0
    2.5730   -1.3060   -5.0100 C   0  0  2  0  0  0  0  0  0  0  0  0
    3.0600    2.2120   -4.6330 C   0  0  2  0  0  0  0  0  0  0  0  0
    5.8190    1.4280   -0.6920 C   0  0  1  0  0  0  0  0  0  0  0  0
    5.2590   -2.0850   -1.0220 C   0  0  1  0  0  0  0  0  0  0  0  0
   -5.4730   -1.1550   -1.9770 C   0  0  2  0  0  0  0  0  0  0  0  0
   -5.2450    2.3290   -1.2550 C   0  0  2  0  0  0  0  0  0  0  0  0
   -4.5280   -2.0700    2.7120 C   0  0  1  0  0  0  0  0  0  0  0  0
   -4.7580    1.4120    3.5050 C   0  0  1  0  0  0  0  0  0  0  0  0
    0.8230    0.5110    5.2210 N   0  0  0  0  0  0  0  0  0  0  0  0
    1.3580   -0.7650    5.6070 C   0  0  2  0  0  0  0  0  0  0  0  0
    2.8150   -0.7320    5.0450 C   0  0  2  0  0  0  0  0  0  0  0  0
    2.8710    0.5230    4.3410 N   0  0  0  0  0  0  0  0  0  0  0  0
    1.7250    1.2860    4.5100 C   0  0  0  0  0  0  0  0  0  0  0  0
    0.7840   -1.9250    4.9760 N   0  0  0  0  0  0  0  0  0  0  0  0
    1.7160   -2.6590    4.2570 C   0  0  0  0  0  0  0  0  0  0  0  0
    2.8920   -1.9250    4.2480 N   0  0  0  0  0  0  0  0  0  0  0  0
    1.5670    2.4300    4.1590 O   0  0  0  0  0  0  0  0  0  0  0  0
    1.5540   -3.7580    3.7810 O   0  0  0  0  0  0  0  0  0  0  0  0
   -0.4220    1.0470    5.6940 C   0  0  2  0  0  0  0  0  0  0  0  0
   -0.4700   -2.5100    5.3690 C   0  0  2  0  0  0  0  0  0  0  0  0
    1.8262    0.7519   -6.5368 H   0  0  0  0  0  0  0  0  0  0  0  0
   -0.7495    1.2891   -6.6537 H   0  0  0  0  0  0  0  0  0  0  0  0
   -3.9500    1.3636   -5.3837 H   0  0  0  0  0  0  0  0  0  0  0  0
   -5.7768    0.9872   -3.5345 H   0  0  0  0  0  0  0  0  0  0  0  0
    6.7798   -0.6871    0.6794 H   0  0  0  0  0  0  0  0  0  0  0  0
    6.0161   -0.6201    3.2007 H   0  0  0  0  0  0  0  0  0  0  0  0
   -2.2502   -0.7649    6.3988 H   0  0  0  0  0  0  0  0  0  0  0  0
   -4.5118   -0.7776    5.0504 H   0  0  0  0  0  0  0  0  0  0  0  0
   -6.8362    0.4316   -0.2622 H   0  0  0  0  0  0  0  0  0  0  0  0
   -6.4428   -0.2737    2.2436 H   0  0  0  0  0  0  0  0  0  0  0  0
    4.8774   -2.3529    4.4330 H   0  0  0  0  0  0  0  0  0  0  0  0
    3.8919   -3.4751    3.4407 H   0  0  0  0  0  0  0  0  0  0  0  0
   -2.1734    2.8841   -5.6423 H   0  0  0  0  0  0  0  0  0  0  0  0
   -1.5650    3.6534   -4.1495 H   0  0  0  0  0  0  0  0  0  0  0  0
    3.9317    2.1662    3.7604 H   0  0  0  0  0  0  0  0  0  0  0  0
    4.8506    0.8532    4.5506 H   0  0  0  0  0  0  0  0  0  0  0  0
   -2.2678   -1.7584   -5.6401 H   0  0  0  0  0  0  0  0  0  0  0  0
   -2.5621   -0.1925   -6.4644 H   0  0  0  0  0  0  0  0  0  0  0  0
    4.7992    0.1897   -4.8510 H   0  0  0  0  0  0  0  0  0  0  0  0
    6.2568   -0.2736   -2.7228 H   0  0  0  0  0  0  0  0  0  0  0  0
    3.1093   -1.1235   -5.9177 H   0  0  0  0  0  0  0  0  0  0  0  0
    2.2985   -2.3317   -4.8778 H   0  0  0  0  0  0  0  0  0  0  0  0
    3.0918    3.2385   -4.3327 H   0  0  0  0  0  0  0  0  0  0  0  0
    3.5614    2.0187   -5.5583 H   0  0  0  0  0  0  0  0  0  0  0  0
    5.7623    2.4877   -0.5548 H   0  0  0  0  0  0  0  0  0  0  0  0
    6.8073    1.0705   -0.8930 H   0  0  0  0  0  0  0  0  0  0  0  0
    6.3173   -2.0738   -1.1791 H   0  0  0  0  0  0  0  0  0  0  0  0
    4.8342   -3.0655   -1.0770 H   0  0  0  0  0  0  0  0  0  0  0  0
   -5.3418   -2.2059   -2.1296 H   0  0  0  0  0  0  0  0  0  0  0  0
   -6.4443   -0.8003   -2.2521 H   0  0  0  0  0  0  0  0  0  0  0  0
   -6.2670    2.2990   -1.5704 H   0  0  0  0  0  0  0  0  0  0  0  0
   -4.9151    3.3056   -0.9681 H   0  0  0  0  0  0  0  0  0  0  0  0
   -4.2973   -3.0577    2.3711 H   0  0  0  0  0  0  0  0  0  0  0  0
   -5.4068   -2.0300    3.3211 H   0  0  0  0  0  0  0  0  0  0  0  0
   -5.6259    1.1059    4.0509 H   0  0  0  0  0  0  0  0  0  0  0  0
   -4.5570    2.4615    3.5598 H   0  0  0  0  0  0  0  0  0  0  0  0
    1.1984   -0.8675    6.6601 H   0  0  0  0  0  0  0  0  0  0  0  0
    3.6448   -0.7518    5.7202 H   0  0  0  0  0  0  0  0  0  0  0  0
   -0.5188    0.7971    6.7299 H   0  0  0  0  0  0  0  0  0  0  0  0
   -0.3819    2.1009    5.5132 H   0  0  0  0  0  0  0  0  0  0  0  0
   -0.4697   -3.5332    5.0561 H   0  0  0  0  0  0  0  0  0  0  0  0
   -0.5345   -2.3855    6.4298 H   0  0  0  0  0  0  0  0  0  0  0  0
   -0.0593    4.0231   -0.8498 C   0  0  0  0  0  0  0  0  0  0  0  0
   -0.0575    2.8470   -1.5905 C   0  0  0  0  0  0  0  0  0  0  0  0
   -0.0125    1.5351   -1.1335 C   0  0  0  0  0  0  0  0  0  0  0  0
    0.0420    1.0753    0.1770 C   0  0  0  0  0  0  0  0  0  0  0  0
    0.0648    1.8138    1.3542 C   0  0  0  0  0  3  0  0  0  0  0  0
    0.0389    3.1946    1.5117 C   0  0  0  0  0  0  0  0  0  0  0  0
   -0.0164    4.1778    0.5308 C   0  0  0  0  0  0  0  0  0  0  0  0
   -0.0994    4.9409   -1.4248 H   0  0  0  0  0  0  0  0  0  0  0  0
   -0.0965    2.9690   -2.6667 H   0  0  0  0  0  0  0  0  0  0  0  0
   -0.0209    0.7695   -1.9005 H   0  0  0  0  0  0  0  0  0  0  0  0
    0.0704   -0.0015    0.2967 H   0  0  0  0  0  0  0  0  0  0  0  0
    0.1087    1.2368    2.2706 H   0  0  0  0  0  0  0  0  0  0  0  0
    0.0651    3.5518    2.5346 H   0  0  0  0  0  0  0  0  0  0  0  0
   -0.0275    5.2002    0.8900 H   0  0  0  0  0  0  0  0  0  0  0  0
  1  5  1  0
  1 65  1  0
  2  1  1  0
  2  6  1  0
  2  3  1  0
  2 85  1  6
  3  4  1  0
  3  8  1  0
  3 86  1  6
  4  5  1  0
  5  9  2  0
  6 66  1  0
  6  7  1  0
  7 10  2  0
  8 52  1  0
  8  7  1  0
 11 15  1  0
 12 11  1  0
 12 16  1  0
 12 13  1  0
 12 87  1  6
 13 14  1  0
 13 18  1  0
 13 88  1  6
 14 69  1  0
 15 19  2  0
 15 14  1  0
 16 17  1  0
 17 18  1  0
 17 20  2  0
 18 70  1  0
 21 25  1  0
 22 21  1  0
 22 23  1  0
 22 89  1  1
 23 24  1  0
 23 28  1  0
 23 90  1  1
 24 51  1  0
 25 24  1  0
 26 22  1  0
 26 27  1  0
 27 28  1  0
 28 53  1  0
 29 25  2  0
 30 27  2  0
 31 84  1  0
 32 31  1  0
 32 33  1  0
 32 91  1  1
 33 34  1  0
 33 92  1  1
 34 35  1  0
 35 31  1  0
 36 32  1  0
 36 83  1  0
 37 36  1  0
 38 37  1  0
 38 33  1  0
 39 35  2  0
 40 37  2  0
 41 45  1  0
 42 41  1  0
 42 43  1  0
 42 93  1  1
 43 44  1  0
 43 48  1  0
 43 94  1  1
 44 71  1  0
 45 44  1  0
 46 42  1  0
 46 47  1  0
 47 50  2  0
 47 48  1  0
 48 72  1  0
 49 45  2  0
 51 80  1  0
 51 95  1  1
 51 96  1  0
 52 16  1  0
 52 97  1  6
 52 98  1  0
 53 76  1  0
 53 99  1  6
 53100  1  0
 54  4  1  0
 54 11  1  0
 54101  1  6
 54102  1  0
 55 59  1  0
 56 55  1  0
 56 60  1  0
 56 57  1  0
 56103  1  6
 57 58  1  0
 57 62  1  0
 57104  1  6
 58 68  1  0
 59 63  2  0
 59 58  1  0
 60 61  1  0
 61 64  2  0
 61 62  1  0
 62 67  1  0
 65 55  1  0
 65105  1  6
 65106  1  0
 66 60  1  0
 66107  1  1
 66108  1  0
 67 26  1  0
 67109  1  1
 67110  1  0
 68 21  1  0
 68111  1  6
 68112  1  0
 69 41  1  0
 69113  1  1
 69114  1  0
 70 46  1  0
 70115  1  6
 70116  1  0
 71 34  1  0
 71117  1  6
 71118  1  0
 72 38  1  0
 72119  1  1
 72120  1  0
 73 74  1  0
 73 83  1  0
 74 78  1  0
 74 75  1  0
 74121  1  1
 75 80  1  0
 75122  1  1
 76 77  1  0
 76 75  1  0
 77 73  1  0
 78 84  1  0
 79 78  1  0
 80 79  1  0
 81 77  2  0
 82 79  2  0
 83123  1  1
 83124  1  0
 84125  1  1
 84126  1  0
127128  2  0
128129  1  0
129130  2  0
130131  1  0
131132  1  0
132133  2  0
133127  1  0
127134  1  0
128135  1  0
129136  1  0
130137  1  0
131138  1  0
132139  1  0
133140  1  0
M  CHG  1 131   1
M  END
$$$$

     RDKit          3D

140161  0  0  1  0  0  0  0  0999 V2000
    1.3410   -0.5630   -5.0620 N   0  0  0  0  0  0  0  0  0  0  0  0
    1.2350    0.7530   -5.6450 C   0  0  1  0  0  0  0  0  0  0  0  0
   -0.3060    0.9780   -5.7310 C   0  0  1  0  0  0  0  0  0  0  0  0
   -0.8470   -0.3140   -5.4200 N   0  0  0  0  0  0  0  0  0  0  0  0
    0.1230   -1.2290   -5.0420 C   0  0  0  0  0  0  0  0  0  0  0  0
    1.6850    1.8550   -4.8460 N   0  0  0  0  0  0  0  0  0  0  0  0
    0.6440    2.6120   -4.3330 C   0  0  0  0  0  0  0  0  0  0  0  0
   -0.5370    2.0290   -4.7700 N   0  0  0  0  0  0  0  0  0  0  0  0
   -0.0530   -2.4000   -4.8020 O   0  0  0  0  0  0  0  0  0  0  0  0
    0.7490    3.6240   -3.6810 O   0  0  0  0  0  0  0  0  0  0  0  0
   -3.1110   -0.2710   -4.5300 N   0  0  0  0  0  0  0  0  0  0  0  0
   -3.6590    1.0500   -4.4030 C   0  0  1  0  0  0  0  0  0  0  0  0
   -4.7400    0.8890   -3.2890 C   0  0  1  0  0  0  0  0  0  0  0  0
   -4.5400   -0.4620   -2.8270 N   0  0  0  0  0  0  0  0  0  0  0  0
   -3.6610   -1.1740   -3.6330 C   0  0  0  0  0  0  0  0  0  0  0  0
   -2.7860    2.0670   -3.8730 N   0  0  0  0  0  0  0  0  0  0  0  0
   -3.2890    2.6520   -2.7200 C   0  0  0  0  0  0  0  0  0  0  0  0
   -4.4250    1.9420   -2.3680 N   0  0  0  0  0  0  0  0  0  0  0  0
   -3.4600   -2.3640   -3.6020 O   0  0  0  0  0  0  0  0  0  0  0  0
   -2.8550    3.6320   -2.1630 O   0  0  0  0  0  0  0  0  0  0  0  0
    4.9990   -1.6050    0.3100 N   0  0  0  0  0  0  0  0  0  0  0  0
    5.7500   -0.5370    0.9280 C   0  0  2  0  0  0  0  0  0  0  0  0
    5.2890   -0.6010    2.4160 C   0  0  2  0  0  0  0  0  0  0  0  0
    4.5660   -1.8370    2.4860 N   0  0  0  0  0  0  0  0  0  0  0  0
    4.4000   -2.4360    1.2470 C   0  0  0  0  0  0  0  0  0  0  0  0
    5.4160    0.8010    0.5360 N   0  0  0  0  0  0  0  0  0  0  0  0
    4.6970    1.4840    1.5040 C   0  0  0  0  0  0  0  0  0  0  0  0
    4.5220    0.6130    2.5710 N   0  0  0  0  0  0  0  0  0  0  0  0
    3.8850   -3.5070    1.0340 O   0  0  0  0  0  0  0  0  0  0  0  0
    4.3440    2.6380    1.4520 O   0  0  0  0  0  0  0  0  0  0  0  0
   -1.6400   -1.8800    4.8240 N   0  0  0  0  0  0  0  0  0  0  0  0
   -2.2420   -0.6820    5.3320 C   0  0  2  0  0  0  0  0  0  0  0  0
   -3.5860   -0.5950    4.5460 C   0  0  2  0  0  0  0  0  0  0  0  0
   -3.4410   -1.6150    3.5360 N   0  0  0  0  0  0  0  0  0  0  0  0
   -2.3460   -2.4350    3.7680 C   0  0  0  0  0  0  0  0  0  0  0  0
   -1.5920    0.5650    5.0070 N   0  0  0  0  0  0  0  0  0  0  0  0
   -2.4520    1.4580    4.3800 C   0  0  0  0  0  0  0  0  0  0  0  0
   -3.6170    0.7650    4.0920 N   0  0  0  0  0  0  0  0  0  0  0  0
   -2.0890   -3.4700    3.2020 O   0  0  0  0  0  0  0  0  0  0  0  0
   -2.2490    2.6310    4.1800 O   0  0  0  0  0  0  0  0  0  0  0  0
   -5.3360   -0.8900   -0.5730 N   0  0  0  0  0  0  0  0  0  0  0  0
   -5.8430    0.2690    0.1010 C   0  0  1  0  0  0  0  0  0  0  0  0
   -5.6090   -0.0600    1.6080 C   0  0  1  0  0  0  0  0  0  0  0  0
   -4.7930   -1.2490    1.5610 N   0  0  0  0  0  0  0  0  0  0  0  0
   -4.7210   -1.7890    0.2840 C   0  0  0  0  0  0  0  0  0  0  0  0
   -5.1160    1.5030   -0.0830 N   0  0  0  0  0  0  0  0  0  0  0  0
   -4.7190    2.0630    1.1250 C   0  0  0  0  0  0  0  0  0  0  0  0
   -4.9900    1.1310    2.1140 N   0  0  0  0  0  0  0  0  0  0  0  0
   -4.2650   -2.8660   -0.0170 O   0  0  0  0  0  0  0  0  0  0  0  0
   -4.2810    3.1760    1.2910 O   0  0  0  0  0  0  0  0  0  0  0  0
    4.1080   -2.4590    3.6970 C   0  0  2  0  0  0  0  0  0  0  0  0
   -1.7830    2.7370   -4.6570 C   0  0  2  0  0  0  0  0  0  0  0  0
    4.0850    1.1110    3.8490 C   0  0  2  0  0  0  0  0  0  0  0  0
   -2.2240   -0.6910   -5.5800 C   0  0  2  0  0  0  0  0  0  0  0  0
    3.4340   -0.9760   -3.9100 N   0  0  0  0  0  0  0  0  0  0  0  0
    4.3330    0.1440   -3.8890 C   0  0  2  0  0  0  0  0  0  0  0  0
    5.2040   -0.1130   -2.6190 C   0  0  2  0  0  0  0  0  0  0  0  0
    4.6440   -1.3190   -2.0690 N   0  0  0  0  0  0  0  0  0  0  0  0
    3.6480   -1.8630   -2.8660 C   0  0  0  0  0  0  0  0  0  0  0  0
    3.7520    1.4370   -3.6380 N   0  0  0  0  0  0  0  0  0  0  0  0
    4.2370    2.0290   -2.4810 C   0  0  0  0  0  0  0  0  0  0  0  0
    5.0350    1.0890   -1.8480 N   0  0  0  0  0  0  0  0  0  0  0  0
    3.1120   -2.9340   -2.7150 O   0  0  0  0  0  0  0  0  0  0  0  0
    4.0500    3.1670   -2.1250 O   0  0  0  0  0  0  0  0  0  0  0  0
    2.5730   -1.3060   -5.0100 C   0  0  2  0  0  0  0  0  0  0  0  0
    3.0600    2.2120   -4.6330 C   0  0  2  0  0  0  0  0  0  0  0  0
    5.8190    1.4280   -0.6920 C   0  0  1  0  0  0  0  0  0  0  0  0
    5.2590   -2.0850   -1.0220 C   0  0  1  0  0  0  0  0  0  0  0  0
   -5.4730   -1.1550   -1.9770 C   0  0  2  0  0  0  0  0  0  0  0  0
   -5.2450    2.3290   -1.2550 C   0  0  2  0  0  0  0  0  0  0  0  0
   -4.5280   -2.0700    2.7120 C   0  0  1  0  0  0  0  0  0  0  0  0
   -4.7580    1.4120    3.5050 C   0  0  1  0  0  0  0  0  0  0  0  0
    0.8230    0.5110    5.2210 N   0  0  0  0  0  0  0  0  0  0  0  0
    1.3580   -0.7650    5.6070 C   0  0  2  0  0  0  0  0  0  0  0  0
    2.8150   -0.7320    5.0450 C   0  0  2  0  0  0  0  0  0  0  0  0
    2.8710    0.5230    4.3410 N   0  0  0  0  0  0  0  0  0  0  0  0
    1.7250    1.2860    4.5100 C   0  0  0  0  0  0  0  0  0  0  0  0
    0.7840   -1.9250    4.9760 N   0  0  0  0  0  0  0  0  0  0  0  0
    1.7160   -2.6590    4.2570 C   0  0  0  0  0  0  0  0  0  0  0  0
    2.8920   -1.9250    4.2480 N   0  0  0  0  0  0  0  0  0  0  0  0
    1.5670    2.4300    4.1590 O   0  0  0  0  0  0  0  0  0  0  0  0
    1.5540   -3.7580    3.7810 O   0  0  0  0  0  0  0  0  0  0  0  0
   -0.4220    1.0470    5.6940 C   0  0  2  0  0  0  0  0  0  0  0  0
   -0.4700   -2.5100    5.3690 C   0  0  2  0  0  0  0  0  0  0  0  0
    1.8262    0.7519   -6.5368 H   0  0  0  0  0  0  0  0  0  0  0  0
   -0.7495    1.2891   -6.6537 H   0  0  0  0  0  0  0  0  0  0  0  0
   -3.9500    1.3636   -5.3837 H   0  0  0  0  0  0  0  0  0  0  0  0
   -5.7768    0.9872   -3.5345 H   0  0  0  0  0  0  0  0  0  0  0  0
    6.7798   -0.6871    0.6794 H   0  0  0  0  0  0  0  0  0  0  0  0
    6.0161   -0.6201    3.2007 H   0  0  0  0  0  0  0  0  0  0  0  0
   -2.2502   -0.7649    6.3988 H   0  0  0  0  0  0  0  0  0  0  0  0
   -4.5118   -0.7776    5.0504 H   0  0  0  0  0  0  0  0  0  0  0  0
   -6.8362    0.4316   -0.2622 H   0  0  0  0  0  0  0  0  0  0  0  0
   -6.4428   -0.2737    2.2436 H   0  0  0  0  0  0  0  0  0  0  0  0
    4.8774   -2.3529    4.4330 H   0  0  0  0  0  0  0  0  0  0  0  0
    3.8919   -3.4751    3.4407 H   0  0  0  0  0  0  0  0  0  0  0  0
   -2.1734    2.8841   -5.6423 H   0  0  0  0  0  0  0  0  0  0  0  0
   -1.5650    3.6534   -4.1495 H   0  0  0  0  0  0  0  0  0  0  0  0
    3.9317    2.1662    3.7604 H   0  0  0  0  0  0  0  0  0  0  0  0
    4.8506    0.8532    4.5506 H   0  0  0  0  0  0  0  0  0  0  0  0
   -2.2678   -1.7584   -5.6401 H   0  0  0  0  0  0  0  0  0  0  0  0
   -2.5621   -0.1925   -6.4644 H   0  0  0  0  0  0  0  0  0  0  0  0
    4.7992    0.1897   -4.8510 H   0  0  0  0  0  0  0  0  0  0  0  0
    6.2568   -0.2736   -2.7228 H   0  0  0  0  0  0  0  0  0  0  0  0
    3.1093   -1.1235   -5.9177 H   0  0  0  0  0  0  0  0  0  0  0  0
    2.2985   -2.3317   -4.8778 H   0  0  0  0  0  0  0  0  0  0  0  0
    3.0918    3.2385   -4.3327 H   0  0  0  0  0  0  0  0  0  0  0  0
    3.5614    2.0187   -5.5583 H   0  0  0  0  0  0  0  0  0  0  0  0
    5.7623    2.4877   -0.5548 H   0  0  0  0  0  0  0  0  0  0  0  0
    6.8073    1.0705   -0.8930 H   0  0  0  0  0  0  0  0  0  0  0  0
    6.3173   -2.0738   -1.1791 H   0  0  0  0  0  0  0  0  0  0  0  0
    4.8342   -3.0655   -1.0770 H   0  0  0  0  0  0  0  0  0  0  0  0
   -5.3418   -2.2059   -2.1296 H   0  0  0  0  0  0  0  0  0  0  0  0
   -6.4443   -0.8003   -2.2521 H   0  0  0  0  0  0  0  0  0  0  0  0
   -6.2670    2.2990   -1.5704 H   0  0  0  0  0  0  0  0  0  0  0  0
   -4.9151    3.3056   -0.9681 H   0  0  0  0  0  0  0  0  0  0  0  0
   -4.2973   -3.0577    2.3711 H   0  0  0  0  0  0  0  0  0  0  0  0
   -5.4068   -2.0300    3.3211 H   0  0  0  0  0  0  0  0  0  0  0  0
   -5.6259    1.1059    4.0509 H   0  0  0  0  0  0  0  0  0  0  0  0
   -4.5570    2.4615    3.5598 H   0  0  0  0  0  0  0  0  0  0  0  0
    1.1984   -0.8675    6.6601 H   0  0  0  0  0  0  0  0  0  0  0  0
    3.6448   -0.7518    5.7202 H   0  0  0  0  0  0  0  0  0  0  0  0
   -0.5188    0.7971    6.7299 H   0  0  0  0  0  0  0  0  0  0  0  0
   -0.3819    2.1009    5.5132 H   0  0  0  0  0  0  0  0  0  0  0  0
   -0.4697   -3.5332    5.0561 H   0  0  0  0  0  0  0  0  0  0  0  0
   -0.5345   -2.3855    6.4298 H   0  0  0  0  0  0  0  0  0  0  0  0
   -0.0593    5.3564   -0.8498 C   0  0  0  0  0  0  0  0  0  0  0  0
   -0.0575    4.1803   -1.5905 C   0  0  0  0  0  0  0  0  0  0  0  0
   -0.0125    2.8685   -1.1335 C   0  0  0  0  0  0  0  0  0  0  0  0
    0.0420    2.4087    0.1770 C   0  0  0  0  0  0  0  0  0  0  0  0
    0.0648    3.1472    1.3542 C   0  0  0  0  0  3  0  0  0  0  0  0
    0.0389    4.5279    1.5117 C   0  0  0  0  0  0  0  0  0  0  0  0
   -0.0164    5.5111    0.5308 C   0  0  0  0  0  0  0  0  0  0  0  0
   -0.0994    6.2742   -1.4248 H   0  0  0  0  0  0  0  0  0  0  0  0
   -0.0965    4.3023   -2.6667 H   0  0  0  0  0  0  0  0  0  0  0  0
   -0.0209    2.1028   -1.9005 H   0  0  0  0  0  0  0  0  0  0  0  0
    0.0704    1.3319    0.2967 H   0  0  0  0  0  0  0  0  0  0  0  0
    0.1087    2.5701    2.2706 H   0  0  0  0  0  0  0  0  0  0  0  0
    0.0651    4.8851    2.5346 H   0  0  0  0  0  0  0  0  0  0  0  0
   -0.0275    6.5336    0.8900 H   0  0  0  0  0  0  0  0  0  0  0  0
  1  5  1  0
  1 65  1  0
  2  1  1  0
  2  6  1  0
  2  3  1  0
  2 85  1  6
  3  4  1  0
  3  8  1  0
  3 86  1  6
  4  5  1  0
  5  9  2  0
  6 66  1  0
  6  7  1  0
  7 10  2  0
  8 52  1  0
  8  7  1  0
 11 15  1  0
 12 11  1  0
 12 16  1  0
 12 13  1  0
 12 87  1  6
 13 14  1  0
 13 18  1  0
 13 88  1  6
 14 69  1  0
 15 19  2  0
 15 14  1  0
 16 17  1  0
 17 18  1  0
 17 20  2  0
 18 70  1  0
 21 25  1  0
 22 21  1  0
 22 23  1  0
 22 89  1  1
 23 24  1  0
 23 28  1  0
 23 90  1  1
 24 51  1  0
 25 24  1  0
 26 22  1  0
 26 27  1  0
 27 28  1  0
 28 53  1  0
 29 25  2  0
 30 27  2  0
 31 84  1  0
 32 31  1  0
 32 33  1  0
 32 91  1  1
 33 34  1  0
 33 92  1  1
 34 35  1  0
 35 31  1  0
 36 32  1  0
 36 83  1  0
 37 36  1  0
 38 37  1  0
 38 33  1  0
 39 35  2  0
 40 37  2  0
 41 45  1  0
 42 41  1  0
 42 43  1  0
 42 93  1  1
 43 44  1  0
 43 48  1  0
 43 94  1  1
 44 71  1  0
 45 44  1  0
 46 42  1  0
 46 47  1  0
 47 50  2  0
 47 48  1  0
 48 72  1  0
 49 45  2  0
 51 80  1  0
 51 95  1  1
 51 96  1  0
 52 16  1  0
 52 97  1  6
 52 98  1  0
 53 76  1  0
 53 99  1  6
 53100  1  0
 54  4  1  0
 54 11  1  0
 54101  1  6
 54102  1  0
 55 59  1  0
 56 55  1  0
 56 60  1  0
 56 57  1  0
 56103  1  6
 57 58  1  0
 57 62  1  0
 57104  1  6
 58 68  1  0
 59 63  2  0
 59 58  1  0
 60 61  1  0
 61 64  2  0
 61 62  1  0
 62 67  1  0
 65 55  1  0
 65105  1  6
 65106  1  0
 66 60  1  0
 66107  1  1
 66108  1  0
 67 26  1  0
 67109  1  1
 67110  1  0
 68 21  1  0
 68111  1  6
 68112  1  0
 69 41  1  0
 69113  1  1
 69114  1  0
 70 46  1  0
 70115  1  6
 70116  1  0
 71 34  1  0
 71117  1  6
 71118  1  0
 72 38  1  0
 72119  1  1
 72120  1  0
 73 74  1  0
 73 83  1  0
 74 78  1  0
 74 75  1  0
 74121  1  1
 75 80  1  0
 75122  1  1
 76 77  1  0
 76 75  1  0
 77 73  1  0
 78 84  1  0
 79 78  1  0
 80 79  1  0
 81 77  2  0
 82 79  2  0
 83123  1  1
 83124  1  0
 84125  1  1
 84126  1  0
127128  2  0
128129  1  0
129130  2  0
130131  1  0
131132  1  0
132133  2  0
133127  1  0
127134  1  0
128135  1  0
129136  1  0
130137  1  0
131138  1  0
132139  1  0
133140  1  0
M  CHG  1 131   1
M  END
$$$$
